pglib_opf_case9241_pegase/pglib_opf_case9241_pegase_18regions.m
% -------------------------------------------------------------------------
% Partitioned MATPOWER Case File
% Copyright (c) 2025 Milad Hasanzadeh
% Generated on: 2025-06-10
% This file contains partitioned data for 18 regions


% -------------------- mpc_regionR1 --------------------

mpc_regionR1.version = '2';
mpc_regionR1.baseMVA = 100.0000;
mpc_regionR1.bus = [
%	bus_i       type        Pd          Qd          Gs          Bs          area        Vm          Va          baseKV      zone        Vmax        Vmin        
	 1	 1	 378.4	 98.5	 0	 16.61	 0	 1	 0	 220	 6	 1.1	 0.9;
	 2	 1	 151	 48.8	 0	 4.69	 0	 1	 0	 220	 5	 1.1	 0.9;
	 3	 1	 45.95	 14	 0	 13.34	 0	 1	 0	 220	 6	 1.1	 0.9;
	 4	 2	 0	 0	 0	 0	 0	 1	 0	 380	 6	 1.1	 0.9;
	 5	 1	-22.74	-8.32	 0	 6.5	 0	 1	 0	 220	 6	 1.1	 0.9;
	 6	 2	 0	 0	 0	 0	 0	 1	 0	 220	 6	 1.1	 0.9;
	 7	 1	 110.5	-26.8	 0	 16.37	 0	 1	 0	 220	 6	 1.1	 0.9;
	 8	 1	 0	 0	 0	 2.31	 0	 1	 0	 380	 5	 1.1	 0.9;
	 9	 1	 193.17	 53.37	 0	 4.58	 0	 1	 0	 220	 5	 1.1	 0.9;
	 10	 1	 0	-0	 0	 3.77	 0	 1	 0	 220	 6	 1.1	 0.9;
	 11	 1	 51.36	-8.8	 0	 2.15	 0	 1	 0	 220	 6	 1.1	 0.9;
	 12	 1	-0	-0	 0	 82.55	 0	 1	 0	 380	 6	 1.1	 0.9;
	 13	 1	-0	-0	 0	 4.3	 0	 1	 0	 220	 6	 1.1	 0.9;
	 14	 1	 130.6	 84.9	 0	 4.22	 0	 1	 0	 220	 7	 1.1	 0.9;
	 15	 2	 0	 0	 0	 0	 0	 1	 0	 220	 6	 1.1	 0.9;
	 16	 2	 0	 0	 0	 0	 0	 1	 0	 220	 7	 1.1	 0.9;
	 17	 1	 100.1	 45.1	 0	 1.11	 0	 1	 0	 380	 6	 1.1	 0.9;
	 18	 1	-0	 0	 0	 0.56	 0	 1	 0	 150	 7	 1.1	 0.9;
	 19	 1	 0	-0	 0	 14.19	 0	 1	 0	 220	 6	 1.1	 0.9;
	 20	 2	 0	 0	 0	 0	 0	 1	 0	 380	 7	 1.1	 0.9;
	 21	 2	 0	 0	 0	 0	 0	 1	 0	 380	 5	 1.1	 0.9;
	 22	 1	-0	 0	 0	 2.55	 0	 1	 0	 220	 7	 1.1	 0.9;
	 23	 1	 426.6	 93.7	 0	 80.94	 0	 1	 0	 380	 6	 1.1	 0.9;
	 24	 1	 0	-0	 0	 19.36	 0	 1	 0	 220	 6	 1.1	 0.9;
	 25	 2	 0	 0	 0	 0	 0	 1	 0	 220	 6	 1.1	 0.9;
	 26	 1	 0	 0	 0	 0.08	 0	 1	 0	 220	 6	 1.1	 0.9;
	 27	 2	 0	 0	 0	 0	 0	 1	 0	 380	 6	 1.1	 0.9;
	 28	 1	-0	 0	 0	 8.67	 0	 1	 0	 380	 1	 1.1	 0.9;
	 29	 1	 141.1	 2.1	 0	 4.78	 0	 1	 0	 220	 7	 1.1	 0.9;
	 30	 1	 0	 0	 0	 2.37	 0	 1	 0	 220	 1	 1.1	 0.9;
	 31	 1	-0	 0	 0	 7.11	 0	 1	 0	 220	 6	 1.1	 0.9;
	 32	 1	 0.01	 0	 0	 35.09	 0	 1	 0	 380	 6	 1.1	 0.9;
	 33	 1	 44.05	 0	 0	 0	 0	 1	 0	 150	 7	 1.1	 0.9;
	 34	 2	 0	 0	 0	 0	 0	 1	 0	 220	 7	 1.1	 0.9;
	 35	 1	-0	-0	 0	 16.38	 0	 1	 0	 220	 6	 1.1	 0.9;
	 36	 1	 44.75	 0.9	 0	 6.67	 0	 1	 0	 220	 7	 1.1	 0.9;
	 37	 1	 0	 0	 0	 1.47	 0	 1	 0	 220	 6	 1.1	 0.9;
	 38	 1	-0	-0	 0	 1.5	 0	 1	 0	 220	 6	 1.1	 0.9;
	 39	 1	 176.7	 25.6	 0	 2.01	 0	 1	 0	 220	 6	 1.1	 0.9;
	 40	 1	 0	-0	 0	 3.46	 0	 1	 0	 220	 6	 1.1	 0.9;
	 41	 1	 0	-0	 0	 28.16	 0	 1	 0	 380	 1	 1.1	 0.9;
	 42	 1	 0	-0	 0	 47.4	 0	 1	 0	 380	 1	 1.1	 0.9;
	 43	 1	 322.7	 11.9	 0	 10.28	 0	 1	 0	 380	 6	 1.1	 0.9;
	 44	 1	 51.16	 18.2	 0	 5.23	 0	 1	 0	 220	 7	 1.1	 0.9;
	 45	 1	 205.6	 74	 0	 5.56	 0	 1	 0	 220	 7	 1.1	 0.9;
	 46	 1	-0	-0	 0	 2.76	 0	 1	 0	 220	 11	 1.1	 0.9;
	 47	 2	 0	 0	 0	 0	 0	 1	 0	 380	 6	 1.1	 0.9;
	 48	 1	 232.1	 89.8	 0	 0.09	 0	 1	 0	 220	 5	 1.1	 0.9;
	 49	 1	-0	-0	 0	 3.94	 0	 1	 0	 220	 1	 1.1	 0.9;
	 50	 1	 60.07	 28	 0	 4.13	 0	 1	 0	 220	 6	 1.1	 0.9;
	 51	 1	-3.4	-1.3	 0	 2.27	 0	 1	 0	 220	 7	 1.1	 0.9;
	 52	 2	 0	 0	 0	 0	 0	 1	 0	 120	 6	 1.1	 0.9;
	 53	 1	 41.05	 14.3	 0	 11.53	 0	 1	 0	 220	 6	 1.1	 0.9;
	 54	 1	 0	-0	 0	 9.21	 0	 1	 0	 220	 6	 1.1	 0.9;
	 55	 1	-0	-0	 0	 1.49	 0	 1	 0	 220	 7	 1.1	 0.9;
	 56	 1	 0	-0	 0	 5.2	 0	 1	 0	 220	 6	 1.1	 0.9;
	 57	 1	-0	-0	 0	 4.15	 0	 1	 0	 220	 7	 1.1	 0.9;
	 58	 2	 0	 0	 0	 0	 0	 1	 0	 220	 6	 1.1	 0.9;
	 59	 1	-0	-0	 0	 7.28	 0	 1	 0	 220	 3	 1.1	 0.9;
	 60	 2	 0	 0	 0	 0	 0	 1	 0	 220	 5	 1.1	 0.9;
	 61	 1	 17.83	-9.5	 0	 2.79	 0	 1	 0	 220	 7	 1.1	 0.9;
	 62	 1	 333.1	 17.5	 0	 18.86	 0	 1	 0	 380	 6	 1.1	 0.9;
	 63	 1	 303.1	 75.5	 0	 22.74	 0	 1	 0	 380	 6	 1.1	 0.9;
	 64	 2	 0	 0	 0	 0	 0	 1	 0	 220	 6	 1.1	 0.9;
	 65	 1	-0	 0	 0	 24.4	 0	 1	 0	 380	 6	 1.1	 0.9;
	 66	 2	 0	 0	 0	 0	 0	 1	 0	 220	 5	 1.1	 0.9;
	 67	 1	 394.9	 77	 0	 44.93	 0	 1	 0	 380	 6	 1.1	 0.9;
	 68	 1	 0	-0	 0	 18.004129	 0	 1	 0	 380	 5	 1.1	 0.9;
	 69	 1	 10.01	 5	 0	 0.11	 0	 1	 0	 220	 6	 1.1	 0.9;
	 70	 2	 0	 0	 0	 0	 0	 1	 0	 220	 6	 1.1	 0.9;
	 71	 1	-0	 0	 0	 22.75	 0	 1	 0	 220	 5	 1.1	 0.9;
	 72	 1	 150.1	 35	 0	 3.55	 0	 1	 0	 220	 6	 1.1	 0.9;
	 73	 1	-0	 0	 0	 3.37	 0	 1	 0	 220	 7	 1.1	 0.9;
	 74	 1	 189.1	-11.9	 0	 27.462397	 0	 1	 0	 380	 6	 1.1	 0.9;
	 75	 1	 17.52	 4.6	 0	 11.82	 0	 1	 0	 220	 6	 1.1	 0.9;
	 76	 2	 0	 0	 0	 0	 0	 1	 0	 220	 6	 1.1	 0.9;
	 77	 1	 26.93	 9.5	 0	 7.65	 0	 1	 0	 220	 7	 1.1	 0.9;
	 78	 1	 27.03	 13	 0	 2.32	 0	 1	 0	 220	 6	 1.1	 0.9;
	 79	 1	-0	-0	 0	 14.23	 0	 1	 0	 220	 6	 1.1	 0.9;
	 80	 1	 34.64	-0	 0	 0.91	 0	 1	 0	 220	 5	 1.1	 0.9;
	 81	 1	 84.89	 32.4	 0	 7.77	 0	 1	 0	 220	 7	 1.1	 0.9;
	 82	 1	 30.93	-46.6	 0	 1.62	 0	 1	 0	 220	 6	 1.1	 0.9;
	 83	 2	 0	 0	 0	 0	 0	 1	 0	 220	 7	 1.1	 0.9;
	 84	 1	 0	 0	 0	 1.78	 0	 1	 0	 220	 6	 1.1	 0.9;
	 85	 1	 0	 0	 0	 23.36	 0	 1	 0	 380	 7	 1.1	 0.9;
	 86	 1	 0	 0	 0	 2.22	 0	 1	 0	 220	 1	 1.1	 0.9;
	 87	 1	-9.51	-3.32	 0	 0	 0	 1	 0	 220	 6	 1.1	 0.9;
	 88	 1	 0.1	-19.3	 0	 0.25	 0	 1	 0	 220	 3	 1.1	 0.9;
	 89	 1	 183.03	 15.7	 0	 1.83	 0	 1	 0	 220	 6	 1.1	 0.9;
	 90	 2	 0	 0	 0	 0	 0	 1	 0	 220	 6	 1.1	 0.9;
	 91	 2	 0	 0	 0	 0	 0	 1	 0	 220	 7	 1.1	 0.9;
	 92	 1	 105.5	 24.7	 0	 58.37	 0	 1	 0	 220	 6	 1.1	 0.9;
	 93	 1	-0	 0	 0	 13.02	 0	 1	 0	 220	 6	 1.1	 0.9;
	 94	 1	 279.5	 25.8	 0	 20.3	 0	 1	 0	 220	 6	 1.1	 0.9;
	 95	 1	 112.8	 27.6	 0	 35.18	 0	 1	 0	 220	 6	 1.1	 0.9;
	 96	 1	 0	 0	 0	 28.5	 0	 1	 0	 380	 7	 1.1	 0.9;
	 97	 1	-0	-0	 0	 1.56	 0	 1	 0	 220	 6	 1.1	 0.9;
	 98	 1	 71.38	 10.3	 0	 4.56	 0	 1	 0	 220	 6	 1.1	 0.9;
	 99	 2	 0	 0	 0	 0	 0	 1	 0	 220	 6	 1.1	 0.9;
	 100	 1	 135.7	 31.6	 0	 26.65	 0	 1	 0	 220	 6	 1.1	 0.9;
	 101	 1	-0	 0	 0	 1.87	 0	 1	 0	 220	 3	 1.1	 0.9;
	 102	 2	 0	 0	 0	 0	 0	 1	 0	 380	 6	 1.1	 0.9;
	 103	 1	 0	 0	 0.258764	 32.105228	 0	 1	 0	 380	 7	 1.1	 0.9;
	 104	 1	 157.9	 26	 0	 3.74	 0	 1	 0	 220	 7	 1.1	 0.9;
	 105	 1	 0	 0	 0	 6.4	 0	 1	 0	 220	 6	 1.1	 0.9;
	 106	 1	 18.12	-11.6	 0	 14.14	 0	 1	 0	 220	 6	 1.1	 0.9;
	 107	 1	 100.1	 45.6	 0	 0.23	 0	 1	 0	 220	 6	 1.1	 0.9;
	 108	 2	 0	 0	 0	 0	 0	 1	 0	 220	 7	 1.1	 0.9;
	 109	 1	 57.86	 23.2	 0	 2.08	 0	 1	 0	 220	 6	 1.1	 0.9;
	 110	 1	 125.4	 45.8	 0	 0	 0	 1	 0	 220	 5	 1.1	 0.9;
	 111	 2	 0	 0	 0	 0	 0	 1	 0	 380	 6	 1.1	 0.9;
	 112	 1	-21.62	-3.9	 0	 4.01	 0	 1	 0	 220	 7	 1.1	 0.9;
	 113	 2	 0	 0	 0	 0	 0	 1	 0	 380	 7	 1.1	 0.9;
	 114	 1	 329.4	 12.9	 0	 34.36	 0	 1	 0	 380	 6	 1.1	 0.9;
	 115	 1	-0	-0	 0	 21.01	 0	 1	 0	 380	 7	 1.1	 0.9;
	 116	 1	 137.2	 16.1	 0	 5.26	 0	 1	 0	 220	 7	 1.1	 0.9;
	 117	 1	 164.8	 42.5	 0	 32.849681	 0	 1	 0	 380	 6	 1.1	 0.9;
	 118	 1	 50.06	-0	 0	 0	 0	 1	 0	 150	 7	 1.1	 0.9;
	 119	 1	 0	 0	 0	 0	 0	 1	 0	 380	 6	 1.1	 0.9;
	 120	 1	 0	-0	 0.207485	 26.23319	 0	 1	 0	 380	 7	 1.1	 0.9;
	 121	 1	-0	-0	 0	 48.74	 0	 1	 0	 380	 1	 1.1	 0.9;
	 122	 1	 0	 0	 0	 21.06	 0	 1	 0	 380	 7	 1.1	 0.9;
	 123	 2	 0	 0	 0	 0	 0	 1	 0	 380	 6	 1.1	 0.9;
	 124	 2	 0	 0	 0	 0	 0	 1	 0	 380	 6	 1.1	 0.9;
	 125	 1	-0	-0	 0	 1.15	 0	 1	 0	 220	 6	 1.1	 0.9;
	 126	 1	 328.9	 30.4	 0	 66.79	 0	 1	 0	 380	 6	 1.1	 0.9;
	 127	 1	 45.75	 27.5	 0	 4.37	 0	 1	 0	 220	 7	 1.1	 0.9;
	 128	 2	 0	 0	 0	 0	 0	 1	 0	 380	 6	 1.1	 0.9;
	 129	 1	 0.4	-170.2	 0	 3.04	 0	 1	 0	 380	 3	 1.1	 0.9;
	 130	 1	 11.71	 3.8	 0	 2.96	 0	 1	 0	 220	 5	 1.1	 0.9;
	 131	 2	 0	 0	 0	 0	 0	 1	 0	 220	 6	 1.1	 0.9;
	 132	 1	 33.64	 3.9	 0	 3.37	 0	 1	 0	 220	 7	 1.1	 0.9;
	 133	 1	 108.3	 62	 0	 36.65	 0	 1	 0	 220	 7	 1.1	 0.9;
	 134	 1	-11.44	-3.29	 0	 0.04	 0	 1	 0	 220	 6	 1.1	 0.9;
	 135	 1	 61.87	-12.4	 0	 0.83	 0	 1	 0	 220	 6	 1.1	 0.9;
	 136	 1	 54.66	-0	 0	 2.97	 0	 1	 0	 220	 7	 1.1	 0.9;
	 137	 2	 0	 0	 0	 0	 0	 1	 0	 220	 7	 1.1	 0.9;
	 138	 1	 89.1	 2.3	 0	 1.68	 0	 1	 0	 220	 6	 1.1	 0.9;
	 139	 1	 153.64	 29.2	 0	 7.65	 0	 1	 0	 220	 6	 1.1	 0.9;
	 140	 1	 178.4	 69.1	 0	 14.2	 0	 1	 0	 220	 6	 1.1	 0.9;
	 141	 1	-0	 0	 0	 2.99	 0	 1	 0	 220	 1	 1.1	 0.9;
	 142	 2	 0	 0	 0	 0	 0	 1	 0	 220	 7	 1.1	 0.9;
	 143	 1	 54.26	 19.5	 0	 0.05	 0	 1	 0	 220	 7	 1.1	 0.9;
	 144	 1	-3.7	-8	 0	 19.02	 0	 1	 0	 380	 7	 1.1	 0.9;
	 145	 1	 0	 0	 0	 2.67	 0	 1	 0	 220	 6	 1.1	 0.9;
	 146	 1	 529.9	 23.3	 0	 57.66	 0	 1	 0	 380	 6	 1.1	 0.9;
	 147	 1	 78.69	 56.7	 0	 10.47	 0	 1	 0	 220	 6	 1.1	 0.9;
	 148	 1	 0	 0	 0	 9.51	 0	 1	 0	 220	 6	 1.1	 0.9;
	 149	 1	-0	-0	 0	 1.33	 0	 1	 0	 220	 1	 1.1	 0.9;
	 150	 1	 0	 0	 0	 9.9	 0	 1	 0	 220	 7	 1.1	 0.9;
	 151	 1	 297.2	 93.2	 0	 23.74	 0	 1	 0	 380	 6	 1.1	 0.9;
	 152	 1	 137.3	-2.8	 0	 16.39	 0	 1	 0	 220	 6	 1.1	 0.9;
	 153	 1	-0	 0	 0	-0.46	 0	 1	 0	 380	 6	 1.1	 0.9;
	 154	 1	 78.79	 27.4	 0	 2.37	 0	 1	 0	 220	 6	 1.1	 0.9;
	 155	 1	 19.52	 11	 0	 1.11	 0	 1	 0	 220	 6	 1.1	 0.9;
	 156	 1	 97	 18.7	 0	 21.46	 0	 1	 0	 220	 7	 1.1	 0.9;
	 157	 1	-0	-0	 0	 15.02	 0	 1	 0	 220	 7	 1.1	 0.9;
	 158	 1	 628.5	 91.8	 0	 19.83	 0	 1	 0	 380	 6	 1.1	 0.9;
	 159	 1	 110.6	 20.4	 0	 26.9	 0	 1	 0	 220	 6	 1.1	 0.9;
	 160	 1	 264	 40.1	 0	 9.489841	 0	 1	 0	 380	 6	 1.1	 0.9;
	 161	 1	 0	 0	 0	 20.53	 0	 1	 0	 220	 6	 1.1	 0.9;
	 162	 2	 0	 0	 0	 0	 0	 1	 0	 220	 6	 1.1	 0.9;
	 163	 1	-0	-0	 0	 0.5	 0	 1	 0	 380	 6	 1.1	 0.9;
	 164	 1	-0	 0	 0	 4.24	 0	 1	 0	 220	 6	 1.1	 0.9;
	 165	 1	-0	 0	 0	 28.65	 0	 1	 0	 380	 1	 1.1	 0.9;
	 166	 1	 0	 0	 0	 9.85	 0	 1	 0	 220	 6	 1.1	 0.9;
	 167	 1	 173.7	 23	 0	 18.4	 0	 1	 0	 220	 7	 1.1	 0.9;
	 168	 2	 0	 0	 0	 0	 0	 1	 0	 220	 5	 1.1	 0.9;
	 169	 1	-0	 0	 0	 2.43	 0	 1	 0	 220	 6	 1.1	 0.9;
	 170	 1	 0	-0	 0	 13.39	 0	 1	 0	 220	 7	 1.1	 0.9;
	 171	 1	 87.7	 22.2	 0	 7.35	 0	 1	 0	 220	 7	 1.1	 0.9;
	 172	 2	 0	 0	 0	 0	 0	 1	 0	 220	 7	 1.1	 0.9;
	 173	 1	 278.35	 90.4	 0	 12.1	 0	 1	 0	 220	 6	 1.1	 0.9;
	 174	 1	 0	 0	 0	 2.75	 0	 1	 0	 220	 7	 1.1	 0.9;
	 175	 1	-28.96	-8.62	 0	 3.08	 0	 1	 0	 220	 6	 1.1	 0.9;
	 176	 1	 100.1	 44.5	 0	 3.28	 0	 1	 0	 220	 6	 1.1	 0.9;
	 177	 1	 0	 0	 0	 87.06	 0	 1	 0	 380	 6	 1.1	 0.9;
	 178	 1	-0	 0	 0	-0.3	 0	 1	 0	 220	 6	 1.1	 0.9;
	 179	 2	 0	 0	 0	 0	 0	 1	 0	 220	 6	 1.1	 0.9;
	 180	 1	 0	-0	 0	 9.49	 0	 1	 0	 380	 1	 1.1	 0.9;
	 181	 1	-0	 0	 0	 23.88	 0	 1	 0	 380	 6	 1.1	 0.9;
	 182	 2	 0	 0	 0	 0	 0	 1	 0	 220	 7	 1.1	 0.9;
	 183	 1	 0	-0	 0	 44.86	 0	 1	 0	 380	 6	 1.1	 0.9;
	 184	 1	 98.3	 25.9	 0	 3.37	 0	 1	 0	 220	 6	 1.1	 0.9;
	 185	 1	 150	 104.3	 0	 9.21	 0	 1	 0	 220	 3	 1.1	 0.9;
	 186	 1	 223.5	 48	 0	 12.74	 0	 1	 0	 380	 6	 1.1	 0.9;
	 187	 1	 0	-0	 0	 11.28	 0	 1	 0	 220	 6	 1.1	 0.9;
	 188	 1	 394.9	 45.9	 0	 19.569841	 0	 1	 0	 380	 6	 1.1	 0.9;
	 189	 2	 0	 0	 0	 0	 0	 1	 0	 220	 6	 1.1	 0.9;
	 190	 1	 681.5	 57.7	 0	 66.36	 0	 1	 0	 380	 6	 1.1	 0.9;
	 191	 2	 0	 0	 0	 0	 0	 1	 0	 380	 6	 1.1	 0.9;
	 192	 1	 90.5	 27.8	 0	 7.85	 0	 1	 0	 220	 7	 1.1	 0.9;
	 193	 1	-0	 0	 0.349307	 35.121782	 0	 1	 0	 380	 7	 1.1	 0.9;
	 194	 2	 0	 0	 0	 0	 0	 1	 0	 220	 5	 1.1	 0.9;
	 195	 1	 0	-0	 0	 12.96	 0	 1	 0	 380	 6	 1.1	 0.9;
	 196	 1	 69.08	 68	 0	 2.93	 0	 1	 0	 220	 6	 1.1	 0.9;
	 197	 1	 390.8	 79.5	 0	 20.79	 0	 1	 0	 380	 6	 1.1	 0.9;
	 198	 1	 81.19	 31.4	 0	 2.04	 0	 1	 0	 220	 6	 1.1	 0.9;
	 199	 2	 0	 0	 0	 0	 0	 1	 0	 220	 6	 1.1	 0.9;
	 200	 1	 59.32	-20.32	 0	 4.86	 0	 1	 0	 220	 6	 1.1	 0.9;
...
];

mpc_regionR1.gen = [
%	bus         Pg          Qg          Qmax        Qmin        Vg          mBase       status      Pmax        Pmin        Pc1         Pc2         Qc1min      Qc1max      Qc2min      Qc2max      ramp_agc    ramp_10     ramp_30     ramp_q      apf         
	 4	 800	 156.48	 524.53	-211.57	 1	 100	 1	 1200	 400;
	 6	 240	 71.275	 218.52	-75.97	 1	 100	 1	 480	 0;
	 15	 90	 22.875	 78.15	-32.4	 1	 100	 1	 180	 0;
	 16	 39.335	 20.31	 70.12	-29.5	 1	 100	 1	 100	-21.33;
	 20	 1333.335	 324.635	 937.43	-288.16	 1	 100	 1	 2000	 666.67;
	 21	 266.665	 59.31	 183.92	-65.3	 1	 100	 1	 400	 133.33;
	 25	 30	 7.605	 26.02	-10.81	 1	 100	 1	 60	 0;
	 27	 120	 36.835	 110.57	-36.9	 1	 100	 1	 240	 0;
	 34	 40	 13.48	 38.4	-11.44	 1	 100	 1	 80	 0;
	 47	 102.905	 4.2	 71.32	-62.92	 1	 100	 1	 205.81	 0;
	 52	 266.665	 59.69	 182.17	-62.79	 1	 100	 1	 400	 133.33;
	 58	 30	 9.455	 27.88	-8.97	 1	 100	 1	 60	 0;
	 60	 40	 11.855	 36.75	-13.04	 1	 100	 1	 80	 0;
	 64	 400	 80.94	 264.71	-102.83	 1	 100	 1	 600	 200;
	 66	 100	 34.415	 96.64	-27.81	 1	 100	 1	 200	 0;
	 70	 30	 10.265	 28.69	-8.16	 1	 100	 1	 60	 0;
	 76	 30	 7.55	 25.97	-10.87	 1	 100	 1	 60	 0;
	 83	 95.14	 5.96	 68	-56.08	 1	 100	 1	 190.28	 0;
	 90	 90	 28.795	 84.07	-26.48	 1	 100	 1	 180	 0;
	 91	 145.215	 31.6	 118.84	-55.64	 1	 100	 1	 290.43	 0;
	 99	 180	 50.16	 160.62	-60.3	 1	 100	 1	 360	 0;
	 102	 266.665	 56.62	 179.34	-66.1	 1	 100	 1	 400	 133.33;
	 108	 200	 51.935	 176.62	-72.75	 1	 100	 1	 400	 0;
	 111	 266.665	 52.67	 175.3	-69.96	 1	 100	 1	 400	 133.33;
	 113	 733.335	 140.805	 478.45	-196.84	 1	 100	 1	 1100	 366.67;
	 123	 800	 162.315	 530.3	-205.67	 1	 100	 1	 1200	 400;
	 124	 266.665	 54.12	 176.69	-68.45	 1	 100	 1	 400	 133.33;
	 128	 533.335	 110.79	 356.05	-134.47	 1	 100	 1	 800	 266.67;
	 131	 15.535	 8.875	 27.31	-9.56	 1	 100	 1	 100	-68.93;
	 137	 333.335	 86.445	 239.75	-66.86	 1	 100	 1	 500	 166.67;
	 142	 1.85	 0.175	 1.37	-1.02	 1	 100	 1	 3.7	 0;
	 162	 60	 18.03	 54.86	-18.8	 1	 100	 1	 120	 0;
	 168	 40	 14.205	 39.12	-10.71	 1	 100	 1	 80	 0;
	 172	 40	 9.635	 34.56	-15.29	 1	 100	 1	 80	 0;
	 179	 90	 26.555	 81.79	-28.68	 1	 100	 1	 180	 0;
	 182	 60	 20.915	 58.27	-16.44	 1	 100	 1	 120	 0;
	 189	 90	 22.855	 78.09	-32.38	 1	 100	 1	 180	 0;
	 191	 806.665	 211.385	 665.77	-243	 1	 100	 1	 1480	 133.33;
	 194	 98.36	 6.025	 70.15	-58.1	 1	 100	 1	 196.72	 0;
	 199	 60	 17.755	 54.62	-19.11	 1	 100	 1	 120	 0;
	 204	 800	 196.625	 563.93	-170.68	 1	 100	 1	 1200	 400;
	 205	 800	 168.98	 536.84	-198.88	 1	 100	 1	 1200	 400;
	 210	 160	 39.945	 139.64	-59.75	 1	 100	 1	 320	 0;
	 211	 800	 196.85	 564.62	-170.92	 1	 100	 1	 1200	 400;
	 217	 333.335	 75.065	 228.19	-78.06	 1	 100	 1	 500	 166.67;
	 218	 120	 32.235	 106.96	-42.49	 1	 100	 1	 240	 0;
	 224	 266.665	 51.2	 173.96	-71.56	 1	 100	 1	 400	 133.33;
	 225	 60	 19.305	 56.14	-17.53	 1	 100	 1	 120	 0;
	 227	 60	 14.895	 52.31	-22.52	 1	 100	 1	 120	 0;
	 228	 90	 26.655	 81.97	-28.66	 1	 100	 1	 180	 0;
	 229	 533.335	 111.175	 356.44	-134.09	 1	 100	 1	 800	 266.67;
	 243	 180	 44.875	 157.15	-67.4	 1	 100	 1	 360	 0;
	 247	 120	 27.24	 100.91	-46.43	 1	 100	 1	 240	 0;
	 249	 90	 23.28	 78.6	-32.04	 1	 100	 1	 180	 0;
	 250	-33.6	 17.235	 54.59	-20.12	 1	 100	 1	 100	-167.2;
	 251	 333.335	 64.62	 217.44	-88.2	 1	 100	 1	 500	 166.67;
	 259	 120	 36.61	 110.34	-37.12	 1	 100	 1	 240	 0;
	 265	 34.21	 7.895	 26.31	-10.52	 1	 100	 1	 100	-31.58;
	 266	 100	 31.885	 94.12	-30.35	 1	 100	 1	 200	 0;
	 282	 20	 7.095	 19.55	-5.36	 1	 100	 1	 40	 0;
	 286	 160	 50.255	 149.98	-49.47	 1	 100	 1	 320	 0;
	 287	 1066.665	 233.235	 723.46	-256.99	 1	 100	 1	 1600	 533.33;
	 292	 150	 42.2	 134.39	-49.99	 1	 100	 1	 300	 0;
	 294	 429.19	 17.18	 269.01	-234.65	 1	 100	 1	 772.54	 85.84;
	 298	 60	 14.265	 51.15	-22.62	 1	 100	 1	 120	 0;
	 300	 266.665	 50.34	 173.07	-72.39	 1	 100	 1	 400	 133.33;
	 301	 30	 8.395	 26.83	-10.04	 1	 100	 1	 60	 0;
	 323	 23.135	 25.83	 75.62	-23.96	 1	 100	 1	 100	-53.73;
	 326	 1333.335	 321.275	 933.87	-291.32	 1	 100	 1	 2000	 666.67;
	 327	 41.615	 12.31	 37.23	-12.61	 1	 100	 1	 100	-16.77;
	 329	 266.665	 51.02	 173.76	-71.72	 1	 100	 1	 400	 133.33;
	 332	 90	 26.655	 81.97	-28.66	 1	 100	 1	 180	 0;
	 337	 266.665	 57.15	 179.86	-65.56	 1	 100	 1	 400	 133.33;
	 340	 160	 45.565	 145.28	-54.15	 1	 100	 1	 320	 0;
	 341	 220	 56.365	 193.56	-80.83	 1	 100	 1	 440	 0;
	 346	 204.545	-3.695	 132.58	-139.97	 1	 100	 1	 409.09	 0;
	 350	 266.665	 54.54	 177.29	-68.21	 1	 100	 1	 400	 133.33;
	 356	 400	 79.265	 263.39	-104.86	 1	 100	 1	 600	 200;
	 364	 60	 15.635	 52.51	-21.24	 1	 100	 1	 120	 0;
	 365	 60	 15.255	 52.14	-21.63	 1	 100	 1	 120	 0;
	 366	 533.335	 111.26	 356.53	-134.01	 1	 100	 1	 800	 266.67;
	 369	 30	 9.76	 28.17	-8.65	 1	 100	 1	 60	 0;
	 370	 60	 18.675	 55.48	-18.13	 1	 100	 1	 120	 0;
	 375	 60	 16.125	 53.01	-20.76	 1	 100	 1	 120	 0;
	 377	 400	 105.685	 351.25	-139.88	 1	 100	 1	 800	 0;
	 379	 533.335	 124.73	 369.72	-120.26	 1	 100	 1	 800	 266.67;
	 380	 60	 15.23	 52.11	-21.65	 1	 100	 1	 120	 0;
	 385	 80	 25.41	 75.26	-24.44	 1	 100	 1	 160	 0;
	 394	 401.01	-6.085	 249.65	-261.82	 1	 100	 1	 769.94	 32.08;
	 397	 266.665	 56.36	 178.97	-66.25	 1	 100	 1	 400	 133.33;
	 399	 266.665	 54.54	 177.29	-68.21	 1	 100	 1	 400	 133.33;
	 405	 60	 19.44	 56.24	-17.36	 1	 100	 1	 120	 0;
	 418	 600	 138.63	 414.32	-137.06	 1	 100	 1	 900	 300;
	 424	 30	 9.745	 28.15	-8.66	 1	 100	 1	 60	 0;
	 429	 30	 9.835	 28.24	-8.57	 1	 100	 1	 60	 0;
	 432	 266.665	 60.69	 183.4	-62.02	 1	 100	 1	 400	 133.33;
	 433	 30	 9.8	 28.21	-8.61	 1	 100	 1	 60	 0;
	 434	 80	 27.34	 77.14	-22.46	 1	 100	 1	 160	 0;
	 440	 147.915	 8.855	 104.8	-87.09	 1	 100	 1	 295.83	 0;
	 445	 200	 50.905	 175.51	-73.7	 1	 100	 1	 400	 0;
	 451	 136.14	 5.86	 95.06	-83.34	 1	 100	 1	 272.28	 0;
	 452	 20	 5.15	 17.61	-7.31	 1	 100	 1	 40	 0;
	 456	 101.35	 4.1	 70.22	-62.02	 1	 100	 1	 202.7	 0;
	 462	 80	 26.245	 76.11	-23.62	 1	 100	 1	 160	 0;
	 464	 60	 14.105	 51	-22.79	 1	 100	 1	 120	 0;
	 484	 60	 14.2	 51.09	-22.69	 1	 100	 1	 120	 0;
	 485	 1.535	 9.38	 27.79	-9.03	 1	 100	 1	 100	-96.93;
	 486	 200	 51.435	 176.18	-73.31	 1	 100	 1	 400	 0;
	 490	 120	 31.11	 105.85	-43.63	 1	 100	 1	 240	 0;
	 494	 90	 26.12	 81.41	-29.17	 1	 100	 1	 180	 0;
	 500	 160	 49.605	 149.3	-50.09	 1	 100	 1	 320	 0;
	 506	 46.905	 9.785	 28.2	-8.63	 1	 100	 1	 100	-6.19;
	 508	 800	 157.36	 525.09	-210.37	 1	 100	 1	 1200	 400;
	 511	 266.665	 56.62	 179.34	-66.1	 1	 100	 1	 400	 133.33;
	 513	 147.175	 8.725	 104.19	-86.74	 1	 100	 1	 294.35	 0;
	 517	 266.665	 55.385	 178.09	-67.32	 1	 100	 1	 400	 133.33;
	 522	 44.17	 5.335	 17.8	-7.13	 1	 100	 1	 100	-11.66;
	 525	 220	 55.555	 192.7	-81.59	 1	 100	 1	 440	 0;
	 526	 240	 55.85	 203.22	-91.52	 1	 100	 1	 480	 0;
	 534	 266.665	 58.525	 181.24	-64.19	 1	 100	 1	 400	 133.33;
	 538	 120	 36.77	 110.42	-36.88	 1	 100	 1	 240	 0;
	 542	 40	 13.095	 38.02	-11.83	 1	 100	 1	 80	 0;
	 543	-122.735	 9.98	 34.92	-14.96	 1	 100	 1	 100	-345.47;
	 558	 100	 33.35	 95.65	-28.95	 1	 100	 1	 200	 0;
	 560	 266.665	 52.67	 175.3	-69.96	 1	 100	 1	 400	 133.33;
	 562	 30	 9.945	 28.36	-8.47	 1	 100	 1	 60	 0;
	 564	 100	 30.145	 92.45	-32.16	 1	 100	 1	 200	 0;
	 567	 27.29	 2.245	 18.65	-14.16	 1	 100	 1	 100	-45.42;
	 574	 200	 51.225	 175.96	-73.51	 1	 100	 1	 400	 0;
	 575	 90	 27.505	 82.76	-27.75	 1	 100	 1	 180	 0;
	 577	 30	 8.42	 26.85	-10.01	 1	 100	 1	 60	 0;
	 578	 47.51	 4.115	 34.65	-26.42	 1	 100	 1	 95.02	 0;
	 579	 200	 51.69	 176.33	-72.95	 1	 100	 1	 400	 0;
];

mpc_regionR1.branch = [
%	fbus        tbus        r           x           b           rateA       rateB       rateC       ratio       angle       status      angmin      angmax      
	 149	 220	 0.00107	 0.00626	 0	 476	 4974	 4974	 0	 0	 1	-30	 30;
	 149	 225	 0.000841	 0.0055	 0	 476	 5678	 5678	 0	 0	 1	-30	 30;
	 42	 65	 0.00126	 0.01847	 0	 1547	 1707	 1707	 0	 0	 1	-30	 30;
	 121	 239	 0.00131	 0.01765	 0	 1744	 1785	 1785	 0	 0	 1	-30	 30;
	 28	 96	 0.00027	 0.00254	 0	 1349	 12367	 12367	 0	 0	 1	-30	 30;
	 28	 482	 0.00027	 0.00259	 0	 1119	 12131	 12131	 0	 0	 1	-30	 30;
	 180	 96	 0.00033	 0.00302	 0	 1448	 10398	 10398	 0	 0	 1	-30	 30;
	 180	 68	 0.00029	 0.00312	 0	 1613	 10081	 10081	 0	 0	 1	-30	 30;
	 537	 431	 0.00053	 0.00528	 0	 1086	 5953	 5953	 0	 0	 1	-30	 30;
	 537	 515	 0.00056	 0.0053	 0	 1283	 5927	 5927	 0	 0	 1	-30	 30;
	 351	 431	 0.00045	 0.00545	 0	 1382	 5777	 5777	 0	 0	 1	-30	 30;
	 351	 68	 0.00052	 0.00476	 0	 1547	 6597	 6597	 0	 0	 1	-30	 30;
	 501	 470	 0.00011	 0.00109	 0	 1086	 28833	 28833	 0	 0	 1	-30	 30;
	 398	 486	 0.000461	 0.00395	 0	 629	 7943	 7943	 0	 0	 1	-30	 30;
	 546	 510	 0.000169	 0.00096	 0	 312	 32406	 32406	 0	 0	 1	-30	 30;
	 546	 396	 0.000182	 0.000942	 0	 312	 32924	 32924	 0	 0	 1	-30	 30;
	 141	 57	 0.00332	 0.020651	 0	 457	 1511	 1511	 0	 0	 1	-30	 30;
	 141	 214	 0.003969	 0.018781	 0	 457	 1646	 1646	 0	 0	 1	-30	 30;
	 41	 359	 0.00065	 0.00673	 0	 1514	 4672	 4672	 0	 0	 1	-30	 30;
	 242	 170	 0.000969	 0.006021	 0	 553	 5180	 5180	 0	 0	 1	-30	 30;
	 242	 278	 0.00099	 0.005901	 0	 381	 5280	 5280	 0	 0	 1	-30	 30;
	 86	 536	 0.00088	 0.006599	 0	 4745	 4745	 4745	 0	 0	 1	-30	 30;
	 86	 347	 0.00086	 0.006729	 0	 495	 4657	 4657	 0	 0	 1	-30	 30;
	 545	 226	 9e-05	 0.00077	 0	 1711	 40746	 40746	 0	 0	 1	-30	 30;
	 324	 226	 8e-05	 0.00082	 0	 1481	 38340	 38340	 0	 0	 1	-30	 30;
	 324	 482	 8e-05	 0.00076	 0	 1251	 41334	 41334	 0	 0	 1	-30	 30;
	 430	 359	 9e-05	 0.00074	 0	 1613	 42374	 42374	 0	 0	 1	-30	 30;
	 272	 170	 0.00062	 0.003781	 0	 8245	 8245	 8245	 0	 0	 1	-30	 30;
	 272	 59	 0.000599	 0.0035	 0	 553	 8896	 8896	 0	 0	 1	-30	 30;
	 438	 536	 0.00064	 0.00274	 0	 11227	 11227	 11227	 0	 0	 1	-30	 30;
	 438	 101	 0.000651	 0.00268	 0	 610	 11454	 11454	 0	 0	 1	-30	 30;
	 435	 103	 0.00055	 0.00685	 0	 1777	 4597	 4597	 0	 0	 1	-30	 30;
	 435	 32	 0.00061	 0.00639	 0	 1843	 4921	 4921	 0	 0	 1	-30	 30;
	 388	 359	 0.00042	 0.00523	 0	 1514	 6021	 6021	 0	 0	 1	-30	 30;
	 388	 524	 0.00045	 0.00605	 0	 1481	 5207	 5207	 0	 0	 1	-30	 30;
	 367	 226	 0.0003	 0.00228	 0	 1448	 13736	 13736	 0	 0	 1	-30	 30;
	 478	 46	 0.00575	 0.046461	 0	 572	 675	 675	 0	 0	 1	-30	 30;
	 478	 90	 0.006711	 0.04426	 0	 591	 706	 706	 0	 0	 1	-30	 30;
	 446	 122	 9e-05	 0.00069	 0	 1316	 45395	 45395	 0	 0	 1	-30	 30;
	 446	 467	 4e-05	 0.00036	 0	 1415	 87206	 87206	 0	 0	 1	-30	 30;
	 548	 16	 0.00426	 0.027099	 0	 629	 1152	 1152	 0	 0	 1	-30	 30;
	 548	 380	 0.00437	 0.024969	 0	 591	 1247	 1247	 0	 0	 1	-30	 30;
	 392	 500	 0.005	 0.03932	 0	 419	 797	 797	 0	 0	 1	-30	 30;
	 392	 471	 0.006039	 0.036789	 0	 457	 848	 848	 0	 0	 1	-30	 30;
	 49	 16	 0.00418	 0.022729	 0	 629	 1367	 1367	 0	 0	 1	-30	 30;
	 49	 365	 0.00405	 0.02231	 0	 629	 1394	 1394	 0	 0	 1	-30	 30;
	 570	 271	 0.00078	 0.01201	 0	 2625	 2625	 2625	 0	 0	 1	-30	 30;
	 570	 415	 0.00075	 0.01254	 0	 1777	 2515	 2515	 0	 0	 1	-30	 30;
	 530	 115	 0.00035	 0.00581	 0	 1876	 5427	 5427	 0	 0	 1	-30	 30;
	 530	 183	 0.00045	 0.00534	 0	 5895	 5895	 5895	 0	 0	 1	-30	 30;
	 463	 475	 8.1e-05	 0.001331	 0	 23689	 23689	 23689	 0	 0	 1	-30	 30;
	 463	 401	 0.00025	 0.001591	 0	 19614	 19614	 19614	 0	 0	 1	-30	 30;
	 442	 157	 0.00401	 0.026219	 0	 419	 1191	 1191	 0	 0	 1	-30	 30;
	 442	 471	 0.004669	 0.027521	 0	 419	 1132	 1132	 0	 0	 1	-30	 30;
	 421	 469	 0.00201	 0.00988	 0	 553	 3133	 3133	 0	 0	 1	-30	 30;
	 421	 152	 0.003401	 0.019099	 0	 572	 1629	 1629	 0	 0	 1	-30	 30;
	 362	 120	 0.00085	 0.01005	 0	 1711	 3132	 3132	 0	 0	 1	-30	 30;
	 362	 358	 0.00073	 0.0097	 0	 1843	 3248	 3248	 0	 0	 1	-30	 30;
	 165	 231	 0.00055	 0.00683	 0	 1645	 4610	 4610	 0	 0	 1	-30	 30;
	 413	 231	 0.00056	 0.00668	 0	 1942	 4713	 4713	 0	 0	 1	-30	 30;
	 30	 564	 0.002211	 0.013341	 0	 572	 2336	 2336	 0	 0	 1	-30	 30;
	 30	 9	 0.001901	 0.014229	 0	 591	 2201	 2201	 0	 0	 1	-30	 30;
	 563	 21	 0.00033	 0.00421	 0	 1909	 7480	 7480	 0	 0	 1	-30	 30;
	 563	 538	 0.00084	 0.00353	 0	 8706	 8706	 8706	 0	 0	 1	-30	 30;
	 339	 579	 0.00053	 0.0084	 0	 1415	 3753	 3753	 0	 0	 1	-30	 30;
	 349	 579	 0.00052	 0.00778	 0	 1415	 4052	 4052	 0	 0	 1	-30	 30;
	 338	 167	 0.00055	 0.00505	 0	 6219	 6219	 6219	 0	 0	 1	-30	 30;
	 338	 401	 9.9e-05	 0.00164	 0	 19226	 19226	 19226	 0	 0	 1	-30	 30;
	 45	 374	 0.003219	 0.01439	 0	 2143	 2143	 2143	 0	 0	 1	-30	 30;
	 45	 133	 0.00239	 0.01426	 0	 2185	 2185	 2185	 0	 0	 1	-30	 30;
	 542	 414	 0.00143	 0.013591	 0	 591	 2312	 2312	 0	 0	 1	-30	 30;
	 542	 457	 0.004669	 0.05795	 0	 544	 544	 544	 0	 0	 1	-30	 30;
	 542	 112	 0.00412	 0.043151	 0	 610	 729	 729	 0	 0	 1	-30	 30;
	 542	 220	 0.000521	 0.00612	 0	 5143	 5143	 5143	 0	 0	 1	-30	 30;
	 353	 316	 0.005849	 0.02768	 0	 273	 1117	 1117	 0	 0	 1	-30	 30;
	 314	 353	 0.012742	 0.049311	 0	 273	 621	 621	 0	 0	 1	-30	 30;
	 410	 457	 0.00206	 0.01061	 0	 2923	 2923	 2923	 0	 0	 1	-30	 30;
	 410	 136	 0.001591	 0.01	 0	 3120	 3120	 3120	 0	 0	 1	-30	 30;
	 96	 113	 0.00098	 0.00874	 0	 1547	 3592	 3592	 0	 0	 1	-30	 30;
	 96	 359	 0.00045	 0.00548	 0	 856	 5745	 5745	 0	 0	 1	-30	 30;
	 313	 386	 0.000719	 0.003349	 0	 9222	 9222	 9222	 0	 0	 1	-30	 30;
	 313	 156	 0.000919	 0.00687	 0	 4558	 4558	 4558	 0	 0	 1	-30	 30;
	 313	 406	 0.000219	 0.0015	 0	 20838	 20838	 20838	 0	 0	 1	-30	 30;
	 227	 182	 0.00355	 0.019669	 0	 591	 1581	 1581	 0	 0	 1	-30	 30;
	 227	 57	 0.00389	 0.02201	 0	 495	 1414	 1414	 0	 0	 1	-30	 30;
	 227	 459	 0.00251	 0.01455	 0	 629	 2140	 2140	 0	 0	 1	-30	 30;
	 293	 303	 0.00825	 0.036781	 0	 838	 838	 838	 0	 0	 1	-30	 30;
	 293	 280	 0.000581	 0.00412	 0	 591	 7592	 7592	 0	 0	 1	-30	 30;
	 431	 553	 0.00103	 0.01236	 0	 1481	 2547	 2547	 0	 0	 1	-30	 30;
	 431	 359	 0.0014	 0.01768	 0	 1349	 1782	 1782	 0	 0	 1	-30	 30;
	 352	 29	 0.00088	 0.01169	 0	 2695	 2695	 2695	 0	 0	 1	-30	 30;
	 266	 16	 0.001711	 0.01164	 0	 629	 2685	 2685	 0	 0	 1	-30	 30;
	 266	 296	 0.00268	 0.015031	 0	 553	 2069	 2069	 0	 0	 1	-30	 30;
	 266	 564	 0.0018	 0.01132	 0	 572	 2756	 2756	 0	 0	 1	-30	 30;
	 83	 282	 0.00051	 0.00268	 0	 476	 11579	 11579	 0	 0	 1	-30	 30;
	 83	 172	 0.000651	 0.003289	 0	 419	 9422	 9422	 0	 0	 1	-30	 30;
	 238	 281	 0.0012	 0.01137	 0	 1744	 2763	 2763	 0	 0	 1	-30	 30;
	 238	 422	 0.00168	 0.02275	 0	 1385	 1385	 1385	 0	 0	 1	-30	 30;
	 302	 386	 0.002331	 0.0225	 0	 1397	 1397	 1397	 0	 0	 1	-30	 30;
	 302	 386	 0.002081	 0.0255	 0	 1235	 1235	 1235	 0	 0	 1	-30	 30;
	 302	 51	 0.000781	 0.004979	 0	 6268	 6268	 6268	 0	 0	 1	-30	 30;
	 302	 150	 0.00514	 0.06699	 0	 471	 471	 471	 0	 0	 1	-30	 30;
	 470	 241	 0.00088	 0.00804	 0	 1942	 3906	 3906	 0	 0	 1	-30	 30;
	 470	 226	 0.00032	 0.00311	 0	 1678	 10104	 10104	 0	 0	 1	-30	 30;
	 470	 20	 0.00015	 0.00197	 0	 1020	 15988	 15988	 0	 0	 1	-30	 30;
	 486	 374	 0.004719	 0.023831	 0	 438	 1301	 1301	 0	 0	 1	-30	 30;
	 486	 156	 0.00669	 0.029979	 0	 457	 1029	 1029	 0	 0	 1	-30	 30;
	 574	 527	 0.001031	 0.01225	 0	 2570	 2570	 2570	 0	 0	 1	-30	 30;
	 574	 536	 0.00105	 0.00937	 0	 553	 3351	 3351	 0	 0	 1	-30	 30;
	 574	 73	 0.00201	 0.01293	 0	 400	 2414	 2414	 0	 0	 1	-30	 30;
	 137	 57	 0.002	 0.012229	 0	 553	 2550	 2550	 0	 0	 1	-30	 30;
	 137	 132	 8.1e-05	 0.000521	 0	 400	 59909	 59909	 0	 0	 1	-30	 30;
	 137	 414	 0.00113	 0.010969	 0	 2865	 2865	 2865	 0	 0	 1	-30	 30;
	 553	 547	 0.00195	 0.02538	 0	 1241	 1241	 1241	 0	 0	 1	-30	 30;
	 553	 226	 0.00164	 0.01684	 0	 1514	 1867	 1867	 0	 0	 1	-30	 30;
	 307	 381	 0.006289	 0.06895	 0	 457	 457	 457	 0	 0	 1	-30	 30;
	 307	 559	 0.001169	 0.010229	 0	 3069	 3069	 3069	 0	 0	 1	-30	 30;
	 307	 377	 0.00805	 0.060409	 0	 519	 519	 519	 0	 0	 1	-30	 30;
	 307	 377	 0.00789	 0.061581	 0	 509	 509	 509	 0	 0	 1	-30	 30;
	 307	 457	 0.007159	 0.04164	 0	 533	 748	 748	 0	 0	 1	-30	 30;
	 307	 457	 0.007289	 0.040729	 0	 533	 764	 764	 0	 0	 1	-30	 30;
	 307	 445	 0.004531	 0.02731	 0	 1142	 1142	 1142	 0	 0	 1	-30	 30;
	 307	 81	 0.004521	 0.033581	 0	 533	 933	 933	 0	 0	 1	-30	 30;
	 527	 236	 0.0005	 0.005081	 0	 6187	 6187	 6187	 0	 0	 1	-30	 30;
	 527	 61	 0.00132	 0.006521	 0	 4748	 4748	 4748	 0	 0	 1	-30	 30;
	 346	 381	 0.004401	 0.030531	 0	 1025	 1025	 1025	 0	 0	 1	-30	 30;
	 346	 112	 0.000469	 0.003409	 0	 629	 9180	 9180	 0	 0	 1	-30	 30;
	 213	 241	 0.00239	 0.02364	 0	 1330	 1330	 1330	 0	 0	 1	-30	 30;
	 213	 286	 0.00034	 0.0041	 0	 1777	 7678	 7678	 0	 0	 1	-30	 30;
	 213	 422	 0.00027	 0.00327	 0	 1645	 9627	 9627	 0	 0	 1	-30	 30;
	 213	 422	 0.00026	 0.00333	 0	 1777	 9457	 9457	 0	 0	 1	-30	 30;
	 213	 193	 0.00059	 0.00574	 0	 1547	 5475	 5475	 0	 0	 1	-30	 30;
	 77	 490	 0.000789	 0.003711	 0	 8326	 8326	 8326	 0	 0	 1	-30	 30;
	 77	 475	 0.00419	 0.04988	 0	 632	 632	 632	 0	 0	 1	-30	 30;
	 77	 342	 0.001651	 0.010919	 0	 2861	 2861	 2861	 0	 0	 1	-30	 30;
	 171	 445	 0.007281	 0.03162	 0	 974	 974	 974	 0	 0	 1	-30	 30;
	 171	 157	 0.006831	 0.03505	 0	 572	 885	 885	 0	 0	 1	-30	 30;
	 241	 359	 0.00108	 0.01258	 0	 1645	 2502	 2502	 0	 0	 1	-30	 30;
	 241	 286	 0.00174	 0.0229	 0	 1376	 1376	 1376	 0	 0	 1	-30	 30;
	 241	 193	 0.00223	 0.02125	 0	 1479	 1479	 1479	 0	 0	 1	-30	 30;
	 374	 386	 0.0023	 0.014081	 0	 2214	 2214	 2214	 0	 0	 1	-30	 30;
	 374	 133	 0.00213	 0.026831	 0	 1174	 1174	 1174	 0	 0	 1	-30	 30;
	 374	 373	 0.001039	 0.00549	 0	 5654	 5654	 5654	 0	 0	 1	-30	 30;
	 374	 521	 0.00301	 0.016711	 0	 1861	 1861	 1861	 0	 0	 1	-30	 30;
	 374	 104	 0.000849	 0.005229	 0	 5963	 5963	 5963	 0	 0	 1	-30	 30;
	 374	 116	 0.002781	 0.020281	 0	 591	 1544	 1544	 0	 0	 1	-30	 30;
	 374	 73	 0.002159	 0.01389	 0	 2248	 2248	 2248	 0	 0	 1	-30	 30;
	 18	 510	 0.003502	 0.031631	 0	 325	 993	 993	 0	 0	 1	-30	 30;
	 316	 444	 0.003929	 0.024729	 0	 260	 1262	 1262	 0	 0	 1	-30	 30;
	 444	 18	 0.00076	 0.005609	 0	 260	 5581	 5581	 0	 0	 1	-30	 30;
	 182	 282	 0.002039	 0.01249	 0	 533	 2496	 2496	 0	 0	 1	-30	 30;
	 326	 547	 0.00036	 0.00572	 0	 1942	 5512	 5512	 0	 0	 1	-30	 30;
	 326	 85	 0.00028	 0.00448	 0	 1876	 7038	 7038	 0	 0	 1	-30	 30;
	 210	 381	 0.001091	 0.01663	 0	 457	 1896	 1896	 0	 0	 1	-30	 30;
	 210	 445	 0.011909	 0.080909	 0	 387	 387	 387	 0	 0	 1	-30	 30;
	 210	 16	 0.000401	 0.00232	 0	 381	 13417	 13417	 0	 0	 1	-30	 30;
	 210	 16	 0.000349	 0.00263	 0	 11907	 11907	 11907	 0	 0	 1	-30	 30;
	 108	 385	 0.000531	 0.0063	 0	 4997	 4997	 4997	 0	 0	 1	-30	 30;
	 108	 36	 0.005531	 0.02938	 0	 533	 1057	 1057	 0	 0	 1	-30	 30;
	 108	 500	 0.00019	 0.002521	 0	 12495	 12495	 12495	 0	 0	 1	-30	 30;
	 385	 381	 0.00075	 0.010909	 0	 495	 2889	 2889	 0	 0	 1	-30	 30;
	 525	 280	 0.007	 0.03088	 0	 629	 998	 998	 0	 0	 1	-30	 30;
	 525	 296	 0.002349	 0.009281	 0	 553	 3300	 3300	 0	 0	 1	-30	 30;
	 381	 340	 0.003219	 0.02125	 0	 1470	 1470	 1470	 0	 0	 1	-30	 30;
	 381	 340	 0.004461	 0.027961	 0	 514	 1116	 1116	 0	 0	 1	-30	 30;
	 341	 284	 0.00105	 0.007901	 0	 629	 3964	 3964	 0	 0	 1	-30	 30;
	 426	 303	 0.002461	 0.01019	 0	 3014	 3014	 3014	 0	 0	 1	-30	 30;
	 426	 280	 0.00605	 0.028409	 0	 533	 1088	 1088	 0	 0	 1	-30	 30;
	 143	 73	 7e-05	 0.00039	 0	 79720	 79720	 79720	 0	 0	 1	-30	 30;
	 386	 133	 0.0047	 0.02175	 0	 495	 1420	 1420	 0	 0	 1	-30	 30;
	 468	 288	 0.00118	 0.00719	 0	 591	 4336	 4336	 0	 0	 1	-30	 30;
	 468	 22	 0.002349	 0.01887	 0	 1662	 1662	 1662	 0	 0	 1	-30	 30;
	 144	 115	 0.00104	 0.01314	 0	 1876	 2397	 2397	 0	 0	 1	-30	 30;
	 144	 422	 0.0004	 0.004	 0	 7858	 7858	 7858	 0	 0	 1	-30	 30;
	 559	 425	 0.001289	 0.006229	 0	 476	 4966	 4966	 0	 0	 1	-30	 30;
	 559	 246	 0.00555	 0.035419	 0	 438	 882	 882	 0	 0	 1	-30	 30;
	 559	 246	 0.00381	 0.0328	 0	 957	 957	 957	 0	 0	 1	-30	 30;
	 216	 361	 0.001091	 0.0082	 0	 514	 3819	 3819	 0	 0	 1	-30	 30;
	 216	 312	 0.002081	 0.020419	 0	 495	 1539	 1539	 0	 0	 1	-30	 30;
	 284	 237	 0.00082	 0.00276	 0	 10971	 10971	 10971	 0	 0	 1	-30	 30;
	 284	 445	 0.00162	 0.007021	 0	 4384	 4384	 4384	 0	 0	 1	-30	 30;
	 497	 377	 0.002831	 0.015021	 0	 572	 2067	 2067	 0	 0	 1	-30	 30;
	 497	 14	 0.006781	 0.03026	 0	 514	 1019	 1019	 0	 0	 1	-30	 30;
	 113	 226	 0.00041	 0.00523	 0	 1777	 6022	 6022	 0	 0	 1	-30	 30;
	 113	 281	 0.00062	 0.0098	 0	 1810	 3217	 3217	 0	 0	 1	-30	 30;
	 113	 281	 0.00083	 0.00975	 0	 1843	 3229	 3229	 0	 0	 1	-30	 30;
	 246	 536	 0.00131	 0.01564	 0	 2013	 2013	 2013	 0	 0	 1	-30	 30;
	 246	 457	 0.002039	 0.026831	 0	 1174	 1174	 1174	 0	 0	 1	-30	 30;
	 246	 312	 0.001031	 0.00945	 0	 3323	 3323	 3323	 0	 0	 1	-30	 30;
	 246	 257	 0.001789	 0.015211	 0	 2063	 2063	 2063	 0	 0	 1	-30	 30;
	 133	 457	 0.003021	 0.03739	 0	 843	 843	 843	 0	 0	 1	-30	 30;
	 133	 34	 0.004211	 0.04031	 0	 780	 780	 780	 0	 0	 1	-30	 30;
	 133	 243	 0.004979	 0.029409	 0	 610	 1060	 1060	 0	 0	 1	-30	 30;
	 133	 243	 0.00488	 0.029979	 0	 1040	 1040	 1040	 0	 0	 1	-30	 30;
	 133	 167	 0.002211	 0.02399	 0	 1312	 1312	 1312	 0	 0	 1	-30	 30;
	 133	 167	 0.00231	 0.023021	 0	 1366	 1366	 1366	 0	 0	 1	-30	 30;
	 36	 445	 0.00719	 0.046841	 0	 553	 667	 667	 0	 0	 1	-30	 30;
	 91	 377	 0.00155	 0.00968	 0	 476	 3223	 3223	 0	 0	 1	-30	 30;
	 91	 377	 0.0015	 0.01051	 0	 2976	 2976	 2976	 0	 0	 1	-30	 30;
	 91	 212	 0.00169	 0.013401	 0	 2339	 2339	 2339	 0	 0	 1	-30	 30;
...
];

mpc_regionR1.gencost = [
%	2           startup     shutdown    n           c(n-1)...c0 
	 2	 0	 0	 3	 0	 33.752152	 0;
	 2	 0	 0	 3	 0	 42.422147	 0;
	 2	 0	 0	 3	 0	 14.224446	 0;
	 2	 0	 0	 3	 0	 41.806983	 0;
	 2	 0	 0	 3	 0	 9.538301	 0;
	 2	 0	 0	 3	 0	 19.521714	 0;
	 2	 0	 0	 3	 0	 114.458323	 0;
	 2	 0	 0	 3	 0	 38.039292	 0;
	 2	 0	 0	 3	 0	 41.665073	 0;
	 2	 0	 0	 3	 0	 44.179903	 0;
	 2	 0	 0	 3	 0	 34.908855	 0;
	 2	 0	 0	 3	 0	 20.927762	 0;
	 2	 0	 0	 3	 0	 26.395841	 0;
	 2	 0	 0	 3	 0	 27.601252	 0;
	 2	 0	 0	 3	 0	 41.329283	 0;
	 2	 0	 0	 3	 0	 19.401918	 0;
	 2	 0	 0	 3	 0	 30.927221	 0;
	 2	 0	 0	 3	 0	 39.014432	 0;
	 2	 0	 0	 3	 0	 22.55065	 0;
	 2	 0	 0	 3	 0	 18.177738	 0;
	 2	 0	 0	 3	 0	 22.480414	 0;
	 2	 0	 0	 3	 0	 32.965475	 0;
	 2	 0	 0	 3	 0	 42.283861	 0;
	 2	 0	 0	 3	 0	 42.147587	 0;
	 2	 0	 0	 3	 0	 20.953036	 0;
	 2	 0	 0	 3	 0	 26.024209	 0;
	 2	 0	 0	 3	 0	 33.255779	 0;
	 2	 0	 0	 3	 0	 16.871727	 0;
	 2	 0	 0	 3	 0	 41.900986	 0;
	 2	 0	 0	 3	 0	 21.735968	 0;
	 2	 0	 0	 3	 0	 40.299358	 0;
	 2	 0	 0	 3	 0	 32.298386	 0;
	 2	 0	 0	 3	 0	 39.644179	 0;
	 2	 0	 0	 3	 0	 47.101417	 0;
	 2	 0	 0	 3	 0	 13.106874	 0;
	 2	 0	 0	 3	 0	 33.014463	 0;
	 2	 0	 0	 3	 0	 24.046489	 0;
	 2	 0	 0	 3	 0	 30.893845	 0;
	 2	 0	 0	 3	 0	 23.175603	 0;
	 2	 0	 0	 3	 0	 32.345298	 0;
	 2	 0	 0	 3	 0	 27.918525	 0;
	 2	 0	 0	 3	 0	 12.296122	 0;
	 2	 0	 0	 3	 0	 49.291773	 0;
	 2	 0	 0	 3	 0	 49.057755	 0;
	 2	 0	 0	 3	 0	 50.373476	 0;
	 2	 0	 0	 3	 0	 42.714396	 0;
	 2	 0	 0	 3	 0	 25.089575	 0;
	 2	 0	 0	 3	 0	 16.103507	 0;
	 2	 0	 0	 3	 0	 26.573279	 0;
	 2	 0	 0	 3	 0	 23.822416	 0;
	 2	 0	 0	 3	 0	 19.195876	 0;
	 2	 0	 0	 3	 0	 39.043283	 0;
	 2	 0	 0	 3	 0	 21.504625	 0;
	 2	 0	 0	 3	 0	 24.347311	 0;
	 2	 0	 0	 3	 0	 19.090056	 0;
	 2	 0	 0	 3	 0	 28.019544	 0;
	 2	 0	 0	 3	 0	 30.774764	 0;
	 2	 0	 0	 3	 0	 16.973389	 0;
	 2	 0	 0	 3	 0	 23.434993	 0;
	 2	 0	 0	 3	 0	 24.84215	 0;
	 2	 0	 0	 3	 0	 35.889417	 0;
	 2	 0	 0	 3	 0	 12.286789	 0;
	 2	 0	 0	 3	 0	 44.150423	 0;
	 2	 0	 0	 3	 0	 8.080448	 0;
	 2	 0	 0	 3	 0	 28.112936	 0;
	 2	 0	 0	 3	 0	 14.757324	 0;
	 2	 0	 0	 3	 0	 29.464538	 0;
	 2	 0	 0	 3	 0	 25.442163	 0;
	 2	 0	 0	 3	 0	 34.094839	 0;
	 2	 0	 0	 3	 0	 24.993589	 0;
	 2	 0	 0	 3	 0	 52.367472	 0;
	 2	 0	 0	 3	 0	 28.218235	 0;
	 2	 0	 0	 3	 0	 25.56602	 0;
	 2	 0	 0	 3	 0	 40.267572	 0;
	 2	 0	 0	 3	 0	 25.38049	 0;
	 2	 0	 0	 3	 0	 39.666412	 0;
	 2	 0	 0	 3	 0	 30.934433	 0;
	 2	 0	 0	 3	 0	 23.158307	 0;
	 2	 0	 0	 3	 0	 44.576672	 0;
	 2	 0	 0	 3	 0	 20.087229	 0;
	 2	 0	 0	 3	 0	 22.392973	 0;
	 2	 0	 0	 3	 0	 33.29801	 0;
	 2	 0	 0	 3	 0	 61.520896	 0;
	 2	 0	 0	 3	 0	 34.681768	 0;
	 2	 0	 0	 3	 0	 11.702642	 0;
	 2	 0	 0	 3	 0	 23.475578	 0;
	 2	 0	 0	 3	 0	 31.882959	 0;
	 2	 0	 0	 3	 0	 39.413841	 0;
	 2	 0	 0	 3	 0	 17.765088	 0;
	 2	 0	 0	 3	 0	 25.672406	 0;
	 2	 0	 0	 3	 0	 3.786782	 0;
	 2	 0	 0	 3	 0	 27.337298	 0;
	 2	 0	 0	 3	 0	 25.368438	 0;
	 2	 0	 0	 3	 0	 101.409748	 0;
	 2	 0	 0	 3	 0	 113.22411	 0;
	 2	 0	 0	 3	 0	 14.715111	 0;
	 2	 0	 0	 3	 0	 27.243561	 0;
	 2	 0	 0	 3	 0	 29.726218	 0;
	 2	 0	 0	 3	 0	 15.907335	 0;
	 2	 0	 0	 3	 0	 42.152029	 0;
	 2	 0	 0	 3	 0	 34.267538	 0;
	 2	 0	 0	 3	 0	 56.317293	 0;
	 2	 0	 0	 3	 0	 5.614878	 0;
	 2	 0	 0	 3	 0	 30.192872	 0;
	 2	 0	 0	 3	 0	 39.229967	 0;
	 2	 0	 0	 3	 0	 44.589204	 0;
	 2	 0	 0	 3	 0	 46.069041	 0;
	 2	 0	 0	 3	 0	 29.134503	 0;
	 2	 0	 0	 3	 0	 21.957447	 0;
	 2	 0	 0	 3	 0	 34.234116	 0;
	 2	 0	 0	 3	 0	 19.066271	 0;
	 2	 0	 0	 3	 0	 27.184601	 0;
	 2	 0	 0	 3	 0	 27.586117	 0;
	 2	 0	 0	 3	 0	 23.602774	 0;
	 2	 0	 0	 3	 0	 25.099815	 0;
	 2	 0	 0	 3	 0	 38.213052	 0;
	 2	 0	 0	 3	 0	 40.179498	 0;
	 2	 0	 0	 3	 0	 38.642254	 0;
	 2	 0	 0	 3	 0	 40.82073	 0;
	 2	 0	 0	 3	 0	 32.632615	 0;
	 2	 0	 0	 3	 0	 24.932557	 0;
	 2	 0	 0	 3	 0	 26.77329	 0;
	 2	 0	 0	 3	 0	 34.178659	 0;
	 2	 0	 0	 3	 0	 46.280965	 0;
	 2	 0	 0	 3	 0	 29.316978	 0;
	 2	 0	 0	 3	 0	 32.817705	 0;
	 2	 0	 0	 3	 0	 25.98885	 0;
	 2	 0	 0	 3	 0	 42.819493	 0;
	 2	 0	 0	 3	 0	 23.300558	 0;
	 2	 0	 0	 3	 0	 18.250371	 0;
	 2	 0	 0	 3	 0	 114.850702	 0;
	 2	 0	 0	 3	 0	 35.223883	 0;
	 2	 0	 0	 3	 0	 33.077973	 0;
];


% -------------------- mpc_regionR2 --------------------

mpc_regionR2.version = '2';
mpc_regionR2.baseMVA = 100.0000;
mpc_regionR2.bus = [
%	bus_i       type        Pd          Qd          Gs          Bs          area        Vm          Va          baseKV      zone        Vmax        Vmin        
	 1	 1	 69.68	 43.2	 0	 6.3	 0	 1	 0	 150	 9	 1.3	 0.7;
	 2	 1	-18.52	 6.1	 0	 0.79	 0	 1	 0	 150	 9	 1.1	 0.9;
	 3	 1	 0	 0	 0	 0	 0	 1	 0	 150	 9	 1.3	 0.7;
	 4	 1	 4	 2.4	 0	 0.03	 0	 1	 0	 150	 9	 1.1	 0.9;
	 5	 1	 0	 0	 0	 0	 0	 1	 0	 150	 9	 1.3	 0.7;
	 6	 1	-12.61	 4.1	 0	 1.83	 0	 1	 0	 150	 9	 1.1	 0.9;
	 7	 1	 0	 0	 0	 0	 0	 1	 0	 150	 9	 1.1	 0.9;
	 8	 1	 0	 0	 0	 0	 0	 1	 0	 150	 9	 1.1	 0.9;
	 9	 1	 0	-0	 0	 0.45	 0	 1	 0	 150	 9	 1.1	 0.9;
	 10	 1	-28.93	 9.5	 0	 0.38	 0	 1	 0	 150	 9	 1.1	 0.9;
	 11	 1	 32.94	 20.4	 0	 8.95	 0	 1	 0	 150	 9	 1.3	 0.7;
	 12	 1	-0	 0	 0	 43.02	 0	 1	 0	 380	 1	 1.1	 0.9;
	 13	 1	 7.8	 50.9	 0	 87.765989	 0	 1	 0	 380	 9	 1.1	 0.9;
	 14	 1	 0	 0	 0	 0	 0	 1	 0	 150	 9	 1.1	 0.9;
	 15	 1	 42.95	 26.6	 0	 2.95	 0	 1	 0	 150	 9	 1.1	 0.9;
	 16	 1	-0	-0	 0	 0.2	 0	 1	 0	 150	 9	 1.1	 0.9;
	 17	 1	-8.31	 2.7	 0	 0.18	 0	 1	 0	 150	 9	 1.1	 0.9;
	 18	 1	 30.63	 19	 0	 2.33	 0	 1	 0	 150	 9	 1.3	 0.7;
	 19	 1	 58.87	 36.4	 0	 3.38	 0	 1	 0	 150	 9	 1.1	 0.9;
	 20	 1	 0	-0	 0	 0.94	 0	 1	 0	 150	 9	 1.1	 0.9;
	 21	 1	 0	 0	 0	 1.36	 0	 1	 0	 150	 9	 1.1	 0.9;
	 22	 1	 8.01	 4.9	 0	 0	 0	 1	 0	 150	 9	 1.1	 0.9;
	 23	 1	 70.18	 44.7	 0	 8.09	 0	 1	 0	 150	 9	 1.1	 0.9;
	 24	 1	 0	 0	 0	 0	 0	 1	 0	 150	 9	 1.1	 0.9;
	 25	 1	-0	 0	 0	 0.74	 0	 1	 0	 150	 9	 1.1	 0.9;
	 26	 1	 51.96	 32.2	 0	 0.84	 0	 1	 0	 150	 9	 1.3	 0.7;
	 27	 1	 0	 0	 0	 0.41	 0	 1	 0	 150	 9	 1.1	 0.9;
	 28	 1	-0	-0	 0	 1.55	 0	 1	 0	 150	 9	 1.1	 0.9;
	 29	 1	-0	-0	 0	 0.16	 0	 1	 0	 150	 9	 1.1	 0.9;
	 30	 1	 0	 0	 0	 0	 0	 1	 0	 150	 9	 1.1	 0.9;
	 31	 1	 0	-0	 0	 1.61	 0	 1	 0	 150	 9	 1.1	 0.9;
	 32	 1	-15.72	 5.2	 0	 1.02	 0	 1	 0	 150	 9	 1.1	 0.9;
	 33	 1	 0	-0	 0	 1.39	 0	 1	 0	 150	 9	 1.1	 0.9;
	 34	 1	 42.95	 26.6	 0	 3.89	 0	 1	 0	 150	 9	 1.3	 0.7;
	 35	 1	 0	 0	 0	 0	 0	 1	 0	 150	 9	 1.1	 0.9;
	 36	 1	-0	-0	 0	 0.6	 0	 1	 0	 150	 9	 1.1	 0.9;
	 37	 1	-57	-24.9	 0	 8.1	 0	 1	 0	 150	 9	 1.1	 0.9;
	 38	 1	-0	 0	 0	 0.4	 0	 1	 0	 150	 9	 1.1	 0.9;
	 39	 1	 0	 0	 0	 0	 0	 1	 0	 150	 9	 1.3	 0.7;
	 40	 1	-0	 0	 0	 0.21	 0	 1	 0	 150	 9	 1.1	 0.9;
	 41	 1	 0	 0	 0	 0	 0	 1	 0	 150	 9	 1.1	 0.9;
	 42	 1	-30.03	 9.9	 0	 0	 0	 1	 0	 150	 9	 1.1	 0.9;
	 43	 1	-0	 0	 0	 0.52	 0	 1	 0	 150	 9	 1.1	 0.9;
	 44	 1	 0	 0	 0	 0	 0	 1	 0	 150	 9	 1.1	 0.9;
	 45	 1	 0	 0	 0	 0.25	 0	 1	 0	 150	 9	 1.1	 0.9;
	 46	 1	 0	-0	 0	 1.6	 0	 1	 0	 150	 9	 1.1	 0.9;
	 47	 1	-0	 0	 0	 0.02	 0	 1	 0	 150	 9	 1.1	 0.9;
	 48	 1	-0	 0	 0	 0.46	 0	 1	 0	 150	 9	 1.1	 0.9;
	 49	 1	 74.98	 46.4	 0	 2.74	 0	 1	 0	 150	 9	 1.1	 0.9;
	 50	 1	 35.64	 22	 0	 5.67	 0	 1	 0	 150	 9	 1.1	 0.9;
	 51	 1	 0	 0	 0	 0	 0	 1	 0	 150	 9	 1.1	 0.9;
	 52	 1	-0	 0	 0	 0.34	 0	 1	 0	 150	 9	 1.1	 0.9;
	 53	 1	 0	 0	 0	 0	 0	 1	 0	 150	 9	 1.1	 0.9;
	 54	 1	 0	 0	 0	 0	 0	 1	 0	 150	 9	 1.3	 0.7;
	 55	 1	 33.54	 20.8	 0	 2.42	 0	 1	 0	 150	 9	 1.3	 0.7;
	 56	 1	 57	 39.9	 0	 153.693557	 0	 1	 0	 380	 9	 1.3	 0.7;
	 57	 1	-15.02	 4.9	 0	 0.26	 0	 1	 0	 150	 9	 1.1	 0.9;
	 58	 1	 77.19	 47.8	 0	 2.08	 0	 1	 0	 150	 9	 1.1	 0.9;
	 59	 1	 3.2	 8.3	 0	 0.38	 0	 1	 0	 150	 9	 1.1	 0.9;
	 60	 1	-0	-0	 0	 3.4	 0	 1	 0	 150	 9	 1.1	 0.9;
	 61	 1	 0	-0	 0	 0.01	 0	 1	 0	 150	 9	 1.1	 0.9;
	 62	 1	 0	 0	 0	 5.5	 0	 1	 0	 150	 9	 1.1	 0.9;
	 63	 1	 0	 0	 0	 0	 0	 1	 0	 150	 9	 1.3	 0.7;
	 64	 1	 0	 0	 0	 0	 0	 1	 0	 150	 9	 1.1	 0.9;
	 65	 1	 35.64	 22	 0	 4.46	 0	 1	 0	 150	 9	 1.1	 0.9;
	 66	 1	 41.35	 25.6	 0	 9.9	 0	 1	 0	 150	 9	 1.1	 0.9;
	 67	 1	 0	-0	 0	 0.48	 0	 1	 0	 150	 9	 1.1	 0.9;
	 68	 1	 27.73	 17.2	 0	 0.36	 0	 1	 0	 150	 9	 1.1	 0.9;
	 69	 1	-0	-0	 0	 0.05	 0	 1	 0	 150	 9	 1.1	 0.9;
	 70	 1	 18.12	 11.2	 0	 2.96	 0	 1	 0	 150	 9	 1.1	 0.9;
	 71	 1	 0	-0	 0	 1.54	 0	 1	 0	 150	 9	 1.3	 0.7;
	 72	 1	 0.8	 0.5	 0	 0	 0	 1	 0	 150	 9	 1.1	 0.9;
	 73	 1	-0	-0	 0	 1.52	 0	 1	 0	 150	 9	 1.1	 0.9;
	 74	 1	 29.53	 25.1	 0	 0.8	 0	 1	 0	 150	 9	 1.3	 0.7;
	 75	 1	 47.65	 29.5	 0	 4.19	 0	 1	 0	 150	 9	 1.3	 0.7;
	 76	 1	-0.94	-6.39	 0	 1.76	 0	 1	 0	 150	 9	 1.1	 0.9;
	 77	 1	 2.22	 7.8	 0	 19.16	 0	 1	 0	 150	 9	 1.1	 0.9;
	 78	 1	 0	 0	 0	 0.05	 0	 1	 0	 150	 9	 1.1	 0.9;
	 79	 1	 0	 0	 0	 0.49	 0	 1	 0	 150	 9	 1.1	 0.9;
	 80	 1	-0	 0	 0	 0.86	 0	 1	 0	 150	 9	 1.3	 0.7;
	 81	 1	-0	-0	 0	 0.48	 0	 1	 0	 150	 9	 1.1	 0.9;
	 82	 1	 0	-0	 0	 0.15	 0	 1	 0	 150	 9	 1.1	 0.9;
	 83	 1	-0	-0	 0	 0.98	 0	 1	 0	 150	 9	 1.1	 0.9;
	 84	 1	 0	 0	 0	 1.99	 0	 1	 0	 150	 9	 1.1	 0.9;
	 85	 1	 4	 0.1	 0	 0.02	 0	 1	 0	 150	 9	 1.3	 0.7;
	 86	 1	-0	 0	 0	 5.38	 0	 1	 0	 150	 9	 1.1	 0.9;
	 87	 1	 0	-0	 0	 5.96	 0	 1	 0	 150	 9	 1.1	 0.9;
	 88	 1	 9.51	 4.6	 0	 0.16	 0	 1	 0	 150	 9	 1.1	 0.9;
	 89	 1	-0	-0	 0	 0.76	 0	 1	 0	 150	 9	 1.3	 0.7;
	 90	 1	 0	 0	 0	 0	 0	 1	 0	 150	 9	 1.1	 0.9;
	 91	 1	 0	 0	 0	 0	 0	 1	 0	 150	 9	 1.1	 0.9;
	 92	 1	 0	 0	 0	 0	 0	 1	 0	 150	 9	 1.3	 0.7;
	 93	 1	 27.63	 17.1	 0	 5.89	 0	 1	 0	 150	 9	 1.1	 0.9;
	 94	 1	 0	 0	 0	 0	 0	 1	 0	 150	 9	 1.1	 0.9;
	 95	 1	-0	 0	 0	 5.85	 0	 1	 0	 150	 9	 1.1	 0.9;
	 96	 1	 34.14	 21.1	 0	 0.04	 0	 1	 0	 150	 9	 1.1	 0.9;
	 97	 1	-0	-0	 0	 0.3	 0	 1	 0	 150	 9	 1.1	 0.9;
	 98	 1	-16.82	 5.5	 0	 0.63	 0	 1	 0	 150	 9	 1.1	 0.9;
	 99	 1	 0	 0	 0	 0	 0	 1	 0	 150	 9	 1.1	 0.9;
	 100	 1	 25.73	 15.9	 0	 0.74	 0	 1	 0	 150	 9	 1.1	 0.9;
	 101	 1	 0	 0	 0	 2.15	 0	 1	 0	 150	 9	 1.1	 0.9;
	 102	 1	 36.04	 22.3	 0	 4.15	 0	 1	 0	 150	 9	 1.1	 0.9;
	 103	 1	 0	 0	 0	 0	 0	 1	 0	 150	 9	 1.3	 0.7;
	 104	 1	 0	 0	 0	 39.83	 0	 1	 0	 380	 1	 1.3	 0.7;
	 105	 1	 0	-0	 0	 0.39	 0	 1	 0	 150	 9	 1.1	 0.9;
	 106	 1	 0	 0	 0	 0	 0	 1	 0	 150	 9	 1.1	 0.9;
	 107	 1	-0	-0	 0	 1.68	 0	 1	 0	 150	 9	 1.1	 0.9;
	 108	 1	 0	-0	 0	 1.03	 0	 1	 0	 150	 9	 1.3	 0.7;
	 109	 1	 47.95	 29.7	 0	 0.23	 0	 1	 0	 150	 9	 1.1	 0.9;
	 110	 1	 0	 0	 0	 1.98	 0	 1	 0	 150	 9	 1.1	 0.9;
	 111	 1	 0	 0	 0	 0	 0	 1	 0	 150	 9	 1.1	 0.9;
	 112	 1	 70.78	 43.8	 0	 2.12	 0	 1	 0	 150	 9	 1.3	 0.7;
	 113	 1	 65.57	 44.6	 0	 5.95	 0	 1	 0	 150	 9	 1.1	 0.9;
	 114	 1	 0	 0	 0	 0	 0	 1	 0	 150	 9	 1.3	 0.7;
	 115	 1	 0	 0	 0	 0.52	 0	 1	 0	 150	 9	 1.1	 0.9;
	 116	 1	-0	-0	 0	 0.33	 0	 1	 0	 150	 9	 1.1	 0.9;
	 117	 1	 0	 0	 0	 0	 0	 1	 0	 150	 9	 1.1	 0.9;
	 118	 1	 0	 0	 0	 1.57	 0	 1	 0	 150	 9	 1.1	 0.9;
	 119	 1	-0	 0	 0	 0.37	 0	 1	 0	 150	 9	 1.1	 0.9;
	 120	 1	 0	-0	 0	 0.35	 0	 1	 0	 150	 9	 1.1	 0.9;
	 121	 1	 0	 0	 0	 0	 0	 1	 0	 150	 9	 1.1	 0.9;
	 122	 1	-19.32	 6.4	 0	 0.23	 0	 1	 0	 150	 9	 1.1	 0.9;
	 123	 1	 0	 0	 0	 0	 0	 1	 0	 150	 9	 1.1	 0.9;
	 124	 1	-0	 0	 0	 0.32	 0	 1	 0	 150	 9	 1.1	 0.9;
	 125	 1	 34.44	 27	 0	 0.34	 0	 1	 0	 150	 9	 1.3	 0.7;
	 126	 1	 63.77	 39.5	 0	 1.12	 0	 1	 0	 150	 9	 1.1	 0.9;
	 127	 1	 0	 0	 0	 0.32	 0	 1	 0	 150	 9	 1.1	 0.9;
	 128	 1	 70.08	 43.4	 0	 1.83	 0	 1	 0	 150	 9	 1.1	 0.9;
	 129	 1	 19.2	 9.3	 0	 128.079082	 0	 1	 0	 380	 9	 1.3	 0.7;
	 130	 1	-0	 0	 0	 2.28	 0	 1	 0	 150	 9	 1.1	 0.9;
	 131	 1	-7.6	 28.6	 0	 0.19	 0	 1	 0	 150	 9	 1.1	 0.9;
	 132	 1	-0	 0	 0	 0.34	 0	 1	 0	 150	 9	 1.1	 0.9;
	 133	 1	-0	 0	 0	 0.51	 0	 1	 0	 150	 9	 1.1	 0.9;
	 134	 1	 0	-0	 0	 0.19	 0	 1	 0	 150	 9	 1.3	 0.7;
	 135	 1	-0	-0	 0	 0.54	 0	 1	 0	 150	 9	 1.1	 0.9;
	 136	 1	 3.04	-13.76	 0	 4.17	 0	 1	 0	 150	 9	 1.1	 0.9;
	 137	 2	 0	 0	 0	 0	 0	 1	 0	 150	 9	 1.1	 0.9;
	 138	 1	 0	 0	 0	 0	 0	 1	 0	 150	 9	 1.1	 0.9;
	 139	 1	-0	 0	 0	 1.55	 0	 1	 0	 150	 9	 1.1	 0.9;
	 140	 1	-0	 0	 0	 0.39	 0	 1	 0	 150	 9	 1.1	 0.9;
	 141	 1	-0	 0	 0	 1.77	 0	 1	 0	 150	 9	 1.1	 0.9;
	 142	 1	 0	 0	 0	 0	 0	 1	 0	 150	 9	 1.3	 0.7;
	 143	 1	 0	-0	 0	 0.51	 0	 1	 0	 150	 9	 1.1	 0.9;
	 144	 1	 0	 0	 0	 0	 0	 1	 0	 150	 9	 1.3	 0.7;
	 145	 1	 0	 0	 0	 0.55	 0	 1	 0	 150	 9	 1.1	 0.9;
];

mpc_regionR2.gen = [
%	bus         Pg          Qg          Qmax        Qmin        Vg          mBase       status      Pmax        Pmin        Pc1         Pc2         Qc1min      Qc1max      Qc2min      Qc2max      ramp_agc    ramp_10     ramp_30     ramp_q      apf         
	 137	 533.335	 134.335	 379.68	-111.01	 1	 100	 1	 800	 266.67;
];

mpc_regionR2.branch = [
%	fbus        tbus        r           x           b           rateA       rateB       rateC       ratio       angle       status      angmin      angmax      
	 104	 56	 0.00166	 0.02083	 0	 1119	 2112	 2112	 0	 0	 1	-30	 30;
	 12	 13	 0.00123	 0.01309	 0	 1909	 2403	 2403	 0	 0	 1	-30	 30;
	 138	 23	 0	 0.000222	 0	 142286	 142286	 142286	 0	 0	 1	-30	 30;
	 93	 23	 0.040249	 0.143902	 0	 212	 212	 212	 0	 0	 1	-30	 30;
	 137	 23	 0.021778	 0.071862	 0	 421	 421	 421	 0	 0	 1	-30	 30;
	 23	 49	 0.022742	 0.09932	 0	 311	 311	 311	 0	 0	 1	-30	 30;
	 70	 23	 0.021511	 0.07092	 0	 427	 427	 427	 0	 0	 1	-30	 30;
	 5	 75	 0	 0.000222	 0	 198730	 198730	 198730	 0	 0	 1	-30	 30;
	 75	 37	 0.032351	 0.141289	 0	 333	 333	 333	 0	 0	 1	-30	 30;
	 11	 75	 0.022569	 0.074449	 0	 568	 568	 568	 0	 0	 1	-30	 30;
	 75	 71	 5.8e-05	 0.000222	 0	 192276	 192276	 192276	 0	 0	 1	-30	 30;
	 125	 134	 0.0022	 0.00852	 0	 5014	 5014	 5014	 0	 0	 1	-30	 30;
	 85	 134	 0.000431	 0.000951	 0	 42255	 42255	 42255	 0	 0	 1	-30	 30;
	 125	 80	 0.002249	 0.008351	 0	 5102	 5102	 5102	 0	 0	 1	-30	 30;
	 113	 80	 0.019431	 0.053351	 0	 260	 849	 849	 0	 0	 1	-30	 30;
	 63	 125	 0	 0.000222	 0	 198730	 198730	 198730	 0	 0	 1	-30	 30;
	 35	 15	 0	 0.000222	 0	 142286	 142286	 142286	 0	 0	 1	-30	 30;
	 15	 65	 0.00068	 0.001502	 0	 19159	 19159	 19159	 0	 0	 1	-30	 30;
	 29	 78	 0.001182	 0.002409	 0	 11772	 11772	 11772	 0	 0	 1	-30	 30;
	 53	 93	 0	 0.000222	 0	 142286	 142286	 142286	 0	 0	 1	-30	 30;
	 93	 19	 0.01044	 0.03444	 0	 878	 878	 878	 0	 0	 1	-30	 30;
	 93	 19	 0.009298	 0.03904	 0	 788	 788	 788	 0	 0	 1	-30	 30;
	 93	 70	 0.017311	 0.078738	 0	 392	 392	 392	 0	 0	 1	-30	 30;
	 17	 28	 0.002502	 0.011698	 0	 2641	 2641	 2641	 0	 0	 1	-30	 30;
	 77	 28	 0.009351	 0.039209	 0	 784	 784	 784	 0	 0	 1	-30	 30;
	 28	 136	 0.008622	 0.0296	 0	 1025	 1025	 1025	 0	 0	 1	-30	 30;
	 25	 32	 0.008951	 0.037289	 0	 824	 824	 824	 0	 0	 1	-30	 30;
	 32	 59	 0.005369	 0.02144	 0	 1430	 1430	 1430	 0	 0	 1	-30	 30;
	 94	 126	 0	 0.000222	 0	 142286	 142286	 142286	 0	 0	 1	-30	 30;
	 77	 126	 0.00608	 0.025551	 0	 1203	 1203	 1203	 0	 0	 1	-30	 30;
	 77	 126	 0.00596	 0.026049	 0	 1183	 1183	 1183	 0	 0	 1	-30	 30;
	 126	 25	 0.001369	 0.004898	 0	 6211	 6211	 6211	 0	 0	 1	-30	 30;
	 126	 29	 0.00144	 0.006031	 0	 5095	 5095	 5095	 0	 0	 1	-30	 30;
	 81	 87	 0.006129	 0.023751	 0	 1288	 1288	 1288	 0	 0	 1	-30	 30;
	 62	 87	 0.001049	 0.003311	 0	 9095	 9095	 9095	 0	 0	 1	-30	 30;
	 119	 4	 0.00084	 0.002031	 0	 14372	 14372	 14372	 0	 0	 1	-30	 30;
	 105	 128	 0.004511	 0.01972	 0	 1562	 1562	 1562	 0	 0	 1	-30	 30;
	 105	 133	 0.00064	 0.0028	 0	 10998	 10998	 10998	 0	 0	 1	-30	 30;
	 132	 119	 0.004422	 0.020102	 0	 1535	 1535	 1535	 0	 0	 1	-30	 30;
	 119	 61	 0	 0.00028	 0	 112812	 112812	 112812	 0	 0	 1	-30	 30;
	 56	 129	 0.00225	 0.02425	 0	 823	 1812	 1812	 0	 0	 1	-30	 30;
	 56	 129	 0.00161	 0.02118	 0	 1152	 2078	 2078	 0	 0	 1	-30	 30;
	 13	 129	 0.00312	 0.03268	 0	 1251	 1469	 1469	 0	 0	 1	-30	 30;
	 13	 129	 0.00305	 0.0333	 0	 1382	 1442	 1442	 0	 0	 1	-30	 30;
	 83	 77	 0.000182	 0.000831	 0	 37132	 37132	 37132	 0	 0	 1	-30	 30;
	 141	 83	 0.013649	 0.054609	 0	 562	 562	 562	 0	 0	 1	-30	 30;
	 143	 115	 0.007209	 0.03252	 0	 949	 949	 949	 0	 0	 1	-30	 30;
	 140	 143	 0	 0.00028	 0	 112812	 112812	 112812	 0	 0	 1	-30	 30;
	 115	 77	 0.000169	 0.000769	 0	 40119	 40119	 40119	 0	 0	 1	-30	 30;
	 36	 77	 0.011649	 0.026778	 0	 1082	 1082	 1082	 0	 0	 1	-30	 30;
	 128	 36	 0.004049	 0.01112	 0	 2670	 2670	 2670	 0	 0	 1	-30	 30;
	 128	 77	 0.007898	 0.037338	 0	 828	 828	 828	 0	 0	 1	-30	 30;
	 128	 77	 0.00772	 0.034578	 0	 892	 892	 892	 0	 0	 1	-30	 30;
	 77	 60	 0.042582	 0.193609	 0	 160	 160	 160	 0	 0	 1	-30	 30;
	 77	 130	 0.027591	 0.130569	 0	 237	 237	 237	 0	 0	 1	-30	 30;
	 77	 76	 0.018431	 0.065898	 0	 462	 462	 462	 0	 0	 1	-30	 30;
	 77	 1	 0.02836	 0.1134	 0	 413	 413	 413	 0	 0	 1	-30	 30;
	 77	 11	 0.046142	 0.15844	 0	 293	 293	 293	 0	 0	 1	-30	 30;
	 110	 77	 0.011409	 0.027311	 0	 273	 1068	 1068	 0	 0	 1	-30	 30;
	 77	 136	 0.019271	 0.063569	 0	 476	 476	 476	 0	 0	 1	-30	 30;
	 77	 136	 0.02212	 0.082329	 0	 371	 371	 371	 0	 0	 1	-30	 30;
	 128	 132	 0	 0.00028	 0	 112812	 112812	 112812	 0	 0	 1	-30	 30;
	 128	 88	 0.004449	 0.00924	 0	 3081	 3081	 3081	 0	 0	 1	-30	 30;
	 51	 66	 0	 0.000222	 0	 142286	 142286	 142286	 0	 0	 1	-30	 30;
	 137	 66	 0.013289	 0.04384	 0	 690	 690	 690	 0	 0	 1	-30	 30;
	 137	 66	 0.01184	 0.049689	 0	 619	 619	 619	 0	 0	 1	-30	 30;
	 137	 66	 0.011338	 0.0508	 0	 607	 607	 607	 0	 0	 1	-30	 30;
	 49	 66	 0.008502	 0.035671	 0	 862	 862	 862	 0	 0	 1	-30	 30;
	 66	 46	 0.02216	 0.088622	 0	 346	 346	 346	 0	 0	 1	-30	 30;
	 66	 73	 0.019911	 0.101262	 0	 307	 307	 307	 0	 0	 1	-30	 30;
	 66	 6	 0.014551	 0.068258	 0	 453	 453	 453	 0	 0	 1	-30	 30;
	 66	 58	 0.014129	 0.050529	 0	 603	 603	 603	 0	 0	 1	-30	 30;
	 66	 107	 0.018022	 0.08072	 0	 382	 382	 382	 0	 0	 1	-30	 30;
	 37	 113	 0.014889	 0.05544	 0	 551	 551	 551	 0	 0	 1	-30	 30;
	 37	 113	 0.015178	 0.054289	 0	 561	 561	 561	 0	 0	 1	-30	 30;
	 27	 37	 0.003111	 0.013569	 0	 2270	 2270	 2270	 0	 0	 1	-30	 30;
	 84	 37	 0.000791	 0.00376	 0	 8221	 8221	 8221	 0	 0	 1	-30	 30;
	 37	 109	 0.002751	 0.009809	 0	 3101	 3101	 3101	 0	 0	 1	-30	 30;
	 37	 145	 0.007129	 0.024471	 0	 1240	 1240	 1240	 0	 0	 1	-30	 30;
	 37	 139	 0.017951	 0.0668	 0	 457	 457	 457	 0	 0	 1	-30	 30;
	 37	 67	 0.006178	 0.02812	 0	 1098	 1098	 1098	 0	 0	 1	-30	 30;
	 37	 20	 0.006049	 0.028649	 0	 1079	 1079	 1079	 0	 0	 1	-30	 30;
	 43	 31	 0.000929	 0.003098	 0	 9767	 9767	 9767	 0	 0	 1	-30	 30;
	 48	 43	 0.005858	 0.0246	 0	 1250	 1250	 1250	 0	 0	 1	-30	 30;
	 114	 26	 0	 0.000222	 0	 198730	 198730	 198730	 0	 0	 1	-30	 30;
	 34	 26	 0.01176	 0.04704	 0	 910	 910	 910	 0	 0	 1	-30	 30;
	 140	 33	 0.005431	 0.026551	 0	 1166	 1166	 1166	 0	 0	 1	-30	 30;
	 33	 58	 0.013151	 0.058898	 0	 524	 524	 524	 0	 0	 1	-30	 30;
	 64	 128	 0	 0.000222	 0	 142286	 142286	 142286	 0	 0	 1	-30	 30;
	 82	 42	 4.9e-05	 0.00028	 0	 111124	 111124	 111124	 0	 0	 1	-30	 30;
	 52	 82	 0.002071	 0.008289	 0	 3698	 3698	 3698	 0	 0	 1	-30	 30;
	 69	 42	 4.9e-05	 0.00028	 0	 111124	 111124	 111124	 0	 0	 1	-30	 30;
	 69	 101	 0.000729	 0.003049	 0	 10076	 10076	 10076	 0	 0	 1	-30	 30;
	 30	 42	 0	 0.000222	 0	 142286	 142286	 142286	 0	 0	 1	-30	 30;
	 7	 100	 0	 0.000222	 0	 142286	 142286	 142286	 0	 0	 1	-30	 30;
	 100	 97	 0.003982	 0.020249	 0	 1531	 1531	 1531	 0	 0	 1	-30	 30;
	 100	 133	 0.006498	 0.031791	 0	 974	 974	 974	 0	 0	 1	-30	 30;
	 45	 57	 0.0016	 0.00716	 0	 4306	 4306	 4306	 0	 0	 1	-30	 30;
	 45	 124	 0.001849	 0.006542	 0	 4647	 4647	 4647	 0	 0	 1	-30	 30;
	 9	 57	 0.001809	 0.007018	 0	 4359	 4359	 4359	 0	 0	 1	-30	 30;
	 9	 38	 0.004302	 0.01588	 0	 1920	 1920	 1920	 0	 0	 1	-30	 30;
	 41	 57	 0	 0.000222	 0	 142286	 142286	 142286	 0	 0	 1	-30	 30;
	 113	 98	 0.008831	 0.036751	 0	 836	 836	 836	 0	 0	 1	-30	 30;
	 113	 2	 0.011031	 0.045942	 0	 669	 669	 669	 0	 0	 1	-30	 30;
	 90	 113	 0	 0.000222	 0	 142286	 142286	 142286	 0	 0	 1	-30	 30;
	 1	 113	 0.043418	 0.124111	 0	 367	 367	 367	 0	 0	 1	-30	 30;
	 137	 49	 0.005058	 0.02572	 0	 1206	 1206	 1206	 0	 0	 1	-30	 30;
	 123	 49	 0	 0.000222	 0	 142286	 142286	 142286	 0	 0	 1	-30	 30;
	 116	 27	 0.002182	 0.010329	 0	 2993	 2993	 2993	 0	 0	 1	-30	 30;
	 116	 60	 0.002129	 0.009569	 0	 3223	 3223	 3223	 0	 0	 1	-30	 30;
	 109	 40	 0.0002	 0.00092	 0	 33551	 33551	 33551	 0	 0	 1	-30	 30;
	 40	 16	 0.002542	 0.010649	 0	 2886	 2886	 2886	 0	 0	 1	-30	 30;
	 84	 1	 0.054	 0.121351	 0	 363	 363	 363	 0	 0	 1	-30	 30;
	 91	 109	 0	 0.00028	 0	 112812	 112812	 112812	 0	 0	 1	-30	 30;
	 117	 96	 0	 0.000222	 0	 142286	 142286	 142286	 0	 0	 1	-30	 30;
	 96	 46	 0.0002	 0.000942	 0	 32802	 32802	 32802	 0	 0	 1	-30	 30;
	 96	 97	 0.0002	 0.000871	 0	 35346	 35346	 35346	 0	 0	 1	-30	 30;
	 95	 86	 0.001031	 0.003378	 0	 8944	 8944	 8944	 0	 0	 1	-30	 30;
	 86	 120	 0.000169	 0.00068	 0	 45081	 45081	 45081	 0	 0	 1	-30	 30;
	 20	 95	 0.006249	 0.023262	 0	 1312	 1312	 1312	 0	 0	 1	-30	 30;
	 145	 81	 8.9e-05	 0.000471	 0	 65899	 65899	 65899	 0	 0	 1	-30	 30;
	 39	 34	 0	 0.000222	 0	 198730	 198730	 198730	 0	 0	 1	-30	 30;
	 55	 34	 0.01564	 0.065089	 0	 660	 660	 660	 0	 0	 1	-30	 30;
	 34	 21	 0.018938	 0.085391	 0	 552	 552	 552	 0	 0	 1	-30	 30;
	 34	 18	 0.016511	 0.044662	 0	 927	 927	 927	 0	 0	 1	-30	 30;
	 8	 65	 0	 0.00028	 0	 112812	 112812	 112812	 0	 0	 1	-30	 30;
	 118	 65	 0.000289	 0.000742	 0	 39668	 39668	 39668	 0	 0	 1	-30	 30;
	 111	 50	 0	 0.00028	 0	 112812	 112812	 112812	 0	 0	 1	-30	 30;
	 31	 50	 0.000302	 0.000729	 0	 40031	 40031	 40031	 0	 0	 1	-30	 30;
	 50	 102	 0.000662	 0.002111	 0	 14278	 14278	 14278	 0	 0	 1	-30	 30;
	 131	 73	 0.001262	 0.00532	 0	 5778	 5778	 5778	 0	 0	 1	-30	 30;
	 131	 38	 0.00124	 0.005431	 0	 5671	 5671	 5671	 0	 0	 1	-30	 30;
	 103	 55	 0	 0.000222	 0	 198730	 198730	 198730	 0	 0	 1	-30	 30;
	 55	 11	 0.018351	 0.070502	 0	 606	 606	 606	 0	 0	 1	-30	 30;
	 106	 19	 0	 0.000222	 0	 142286	 142286	 142286	 0	 0	 1	-30	 30;
	 101	 19	 0.02624	 0.096858	 0	 315	 315	 315	 0	 0	 1	-30	 30;
	 72	 141	 0	 0.00028	 0	 112812	 112812	 112812	 0	 0	 1	-30	 30;
	 101	 122	 0.00324	 0.01584	 0	 1954	 1954	 1954	 0	 0	 1	-30	 30;
	 14	 122	 0	 0.000222	 0	 142286	 142286	 142286	 0	 0	 1	-30	 30;
	 130	 68	 0.002329	 0.008	 0	 3792	 3792	 3792	 0	 0	 1	-30	 30;
	 139	 68	 0.002378	 0.007831	 0	 3860	 3860	 3860	 0	 0	 1	-30	 30;
	 24	 68	 0	 0.000222	 0	 142286	 142286	 142286	 0	 0	 1	-30	 30;
	 136	 76	 0.004751	 0.01632	 0	 1859	 1859	 1859	 0	 0	 1	-30	 30;
	 121	 70	 0	 0.00028	 0	 112812	 112812	 112812	 0	 0	 1	-30	 30;
	 124	 10	 0.002551	 0.011578	 0	 2665	 2665	 2665	 0	 0	 1	-30	 30;
	 52	 10	 0.002489	 0.0118	 0	 2620	 2620	 2620	 0	 0	 1	-30	 30;
	 62	 47	 0.000182	 0.000671	 0	 45434	 45434	 45434	 0	 0	 1	-30	 30;
	 112	 108	 0.006169	 0.02036	 0	 2074	 2074	 2074	 0	 0	 1	-30	 30;
	 108	 18	 0.007369	 0.0322	 0	 1336	 1336	 1336	 0	 0	 1	-30	 30;
	 89	 112	 0.005498	 0.023071	 0	 1861	 1861	 1861	 0	 0	 1	-30	 30;
	 120	 89	 0.004809	 0.021671	 0	 2172	 2172	 2172	 0	 0	 1	-30	 30;
	 54	 112	 0	 0.00028	 0	 157564	 157564	 157564	 0	 0	 1	-30	 30;
	 112	 11	 0.016169	 0.06784	 0	 633	 633	 633	 0	 0	 1	-30	 30;
	 142	 1	 0	 0.000222	 0	 198730	 198730	 198730	 0	 0	 1	-30	 30;
	 74	 1	 0.01124	 0.039822	 0	 1067	 1067	 1067	 0	 0	 1	-30	 30;
	 92	 74	 0	 0.00028	 0	 157564	 157564	 157564	 0	 0	 1	-30	 30;
	 144	 11	 0	 0.000222	 0	 198730	 198730	 198730	 0	 0	 1	-30	 30;
	 18	 11	 0.015511	 0.06772	 0	 636	 636	 636	 0	 0	 1	-30	 30;
	 71	 110	 0.042889	 0.088942	 0	 489	 489	 489	 0	 0	 1	-30	 30;
	 6	 141	 0.011289	 0.057409	 0	 540	 540	 540	 0	 0	 1	-30	 30;
	 67	 48	 8.9e-05	 0.000449	 0	 69008	 69008	 69008	 0	 0	 1	-30	 30;
	 127	 61	 0.000169	 0.000662	 0	 46233	 46233	 46233	 0	 0	 1	-30	 30;
	 16	 79	 9.8e-05	 0.000511	 0	 60709	 60709	 60709	 0	 0	 1	-30	 30;
	 135	 79	 0.006338	 0.022662	 0	 1343	 1343	 1343	 0	 0	 1	-30	 30;
	 135	 118	 0.000831	 0.003511	 0	 8755	 8755	 8755	 0	 0	 1	-30	 30;
	 102	 47	 0.000182	 0.00064	 0	 47473	 47473	 47473	 0	 0	 1	-30	 30;
	 102	 21	 0.000191	 0.000631	 0	 47913	 47913	 47913	 0	 0	 1	-30	 30;
	 44	 102	 0	 0.00028	 0	 112812	 112812	 112812	 0	 0	 1	-30	 30;
	 3	 18	 0	 0.000222	 0	 198730	 198730	 198730	 0	 0	 1	-30	 30;
	 99	 58	 0	 0.000222	 0	 142286	 142286	 142286	 0	 0	 1	-30	 30;
	 127	 107	 0.004102	 0.014089	 0	 2153	 2153	 2153	 0	 0	 1	-30	 30;
	 107	 22	 0	 0.000222	 0	 142286	 142286	 142286	 0	 0	 1	-30	 30;
	 129	 77	 0.001099	 0.069265	 0	 696	 696	 696	 1.018675	 0	 1	-30	 30;
	 56	 37	 0.001386	 0.094158	 0	 512	 512	 512	 0.986842	 0	 1	-30	 30;
	 56	 37	 0.001355	 0.096007	 0	 502	 502	 502	 0.986842	 0	 1	-30	 30;
	 13	 131	 0.001317	 0.070127	 0	 451	 451	 451	 1.074114	 0	 1	-30	 30;
];

mpc_regionR2.gencost = [
%	2           startup     shutdown    n           c(n-1)...c0 
	 2	 0	 0	 3	 0	 20.415465	 0;
];


% -------------------- mpc_regionR3 --------------------

mpc_regionR3.version = '2';
mpc_regionR3.baseMVA = 100.0000;
mpc_regionR3.bus = [
%	bus_i       type        Pd          Qd          Gs          Bs          area        Vm          Va          baseKV      zone        Vmax        Vmin        
	 1	 1	 0.24	-1.66	 0	 0.65	 0	 1	 0	 110	 18	 1.1	 0.9;
	 2	 1	 0	 0	 0.099501	 82.133595	 0	 1	 0	 380	 18	 1.1	 0.9;
	 3	 1	 10.81	 5.1	 0	 1.09	 0	 1	 0	 110	 18	 1.1	 0.9;
	 4	 1	 3.8	 1.3	 0	 0.4	 0	 1	 0	 110	 18	 1.1	 0.9;
	 5	 1	 3.42	 2.68	 0	 1.46	 0	 1	 0	 110	 18	 1.1	 0.9;
	 6	 1	-15.04	-5.12	 0	 0.43	 0	 1	 0	 110	 18	 1.1	 0.9;
	 7	 1	-0	 0	 0	 4.93	 0	 1	 0	 110	 18	 1.1	 0.9;
	 8	 1	 2.5	 3.8	 0	 0.15	 0	 1	 0	 110	 18	 1.1	 0.9;
	 9	 2	 0	 0	 0	 0	 0	 1	 0	 110	 18	 1.1	 0.9;
	 10	 1	 0	 0	 0	 25.85	 0	 1	 0	 380	 1	 1.1	 0.9;
	 11	 1	-0	 0	 0	 1.92	 0	 1	 0	 110	 18	 1.1	 0.9;
	 12	 1	 4.4	 0	 0	 0.51	 0	 1	 0	 110	 18	 1.1	 0.9;
	 13	 1	-19.66	-10.83	 0	 0.06	 0	 1	 0	 110	 18	 1.1	 0.9;
	 14	 1	-0	-0	 0.090774	 7.330444	 0	 1	 0	 220	 18	 1.1	 0.9;
	 15	 1	 3.81	 0.24	 0	 0.23	 0	 1	 0	 110	 18	 1.1	 0.9;
	 16	 2	 0	 0	 0	 0	 0	 1	 0	 110	 18	 1.1	 0.9;
	 17	 1	 16.62	 3.1	 0	 1.14	 0	 1	 0	 110	 18	 1.1	 0.9;
	 18	 1	 10.11	 2.8	 0	 1.01	 0	 1	 0	 110	 18	 1.1	 0.9;
	 19	 1	 5.81	 3.8	 0	 0.94	 0	 1	 0	 110	 18	 1.1	 0.9;
	 20	 1	 108.6	 38.7	 0	 0	 0	 1	 0	 110	 18	 1.1	 0.9;
	 21	 1	 1.5	 0.8	 0	 0.55	 0	 1	 0	 110	 18	 1.1	 0.9;
	 22	 1	-0.92	-4.99	 0	 1.86	 0	 1	 0	 110	 18	 1.1	 0.9;
	 23	 1	 30.83	 10.8	 0	 2.59	 0	 1	 0	 110	 18	 1.1	 0.9;
	 24	 1	 2.5	 1.3	 0	 0.07	 0	 1	 0	 110	 18	 1.1	 0.9;
	 25	 1	 26.73	 10.8	 0	 0.43	 0	 1	 0	 110	 18	 1.1	 0.9;
	 26	 1	-0	-0	 0	 0.47	 0	 1	 0	 110	 18	 1.1	 0.9;
	 27	 1	 21.72	 4.8	 0	 1.26	 0	 1	 0	 110	 18	 1.1	 0.9;
	 28	 1	 1.3	 0.6	 0	 1.23	 0	 1	 0	 110	 18	 1.1	 0.9;
	 29	 1	 8.91	 3.8	 0	 0.38	 0	 1	 0	 110	 18	 1.1	 0.9;
	 30	 1	 2.5	 1.3	 0	 2.33	 0	 1	 0	 110	 18	 1.1	 0.9;
	 31	 1	 0	 0	 0.099501	 68.573595	 0	 1	 0	 380	 18	 1.1	 0.9;
	 32	 2	 0	 0	 0	 0	 0	 1	 0	 110	 18	 1.1	 0.9;
	 33	 1	 0	-0	 0	 0.68	 0	 1	 0	 110	 18	 1.1	 0.9;
	 34	 1	 3.7	-0	 0	 0.64	 0	 1	 0	 110	 18	 1.1	 0.9;
	 35	 1	 8.91	 5.1	 0	 1.06	 0	 1	 0	 110	 18	 1.1	 0.9;
	 36	 1	 1.9	 0.8	 0	 0.65	 0	 1	 0	 110	 18	 1.1	 0.9;
	 37	 1	 27.8	-2.03	 0	 0.5	 0	 1	 0	 110	 18	 1.1	 0.9;
	 38	 1	 1.6	-0	 0	 0.44	 0	 1	 0	 110	 18	 1.1	 0.9;
	 39	 1	 1.4	 0.6	 0	 0.41	 0	 1	 0	 110	 18	 1.1	 0.9;
	 40	 1	 24.13	 12.7	 0	 0.1	 0	 1	 0	 110	 18	 1.1	 0.9;
...